96

S    16.80999947   9.94000053  58.74000168
C    19.54000092   9.77999973  57.95000076
C    18.20999908   9.48999977  57.75000000
C    17.85000038   8.76999950  56.56999969
C    18.78999901   8.47000027  55.59999847
C    20.15999985   8.71999931  55.84000015
C    21.12999916   8.46000004  54.82999802
C    22.44999886   8.76999950  55.04000092
C    22.88000107   9.35000038  56.25999832
C    21.93000031   9.67000008  57.21000290
C    20.55999947   9.30999947  57.09000015
C    16.39999962   8.67999935  56.45000076
C    15.70000076   9.26000023  57.52999878
C    14.30999947   9.23999977  57.63999939
C    24.27000046   9.92999935  56.40999603
H    24.79813576   9.44468498  57.23075485
H    19.80999947  10.44000053  58.75999832
H    18.42000008   8.03999996  54.66999817
H    20.69999886   8.05999947  53.92000198
H    23.11000061   8.47000027  54.22999954
H    22.22999954  10.44999981  57.90000153
H    13.81000042   9.72000027  58.47000122
H    24.79000092   9.82999992  55.45000076
H    24.25000000  11.00999928  56.63000107
S    13.26000023   7.72000027  54.06000137
C    10.57000065   7.51999950  54.91000366
C    11.82999992   8.05999947  55.06000137
C    12.15999985   8.60999966  56.32999802
C    11.14999962   8.88000011  57.23999786
C     9.81999969   8.40999985  57.15000153
C     8.73000050   8.65999985  58.02999878
C     7.42999983   8.27000046  57.81000137
C     7.17000008   7.60999966  56.58000183
C     8.22000027   7.34000015  55.73999786
C     9.56999969   7.75000000  55.89000320
C    13.60000038   8.76999950  56.53999710
C    14.27999973   8.26000023  55.40999985
C    15.67000008   8.14000034  55.38000107
C     5.75000000   7.32999992  56.13999939
H     5.35873747   8.08406925  55.45706940
H    10.51000023   6.86999989  54.05000305
H    11.39000034   9.31999969  58.20999908
H     8.94999981   9.07999992  59.01000214
H     6.61999989   8.45000076  58.50999832
H     7.96000004   6.84999990  54.79999924
H    16.11999893   7.68000031  54.50000000
H     5.13000011   7.39000034  57.04999924
H     5.69999981   6.32999992  55.68000031
S    17.14999962   9.81999969  52.81000137
C    19.82999992   9.89000034  52.12999725
C    18.56999969   9.42000008  51.84000015
C    18.26000023   8.76000023  50.59999847
C    19.27000046   8.60999966  49.66999817
C    20.61000061   8.92000008  50.00999832
C    21.65999985   8.89000034  49.06000137
C    22.92000008   9.39999962  49.29000092
C    23.25000000   9.86999989  50.59000015
C    22.26000023   9.86999989  51.55000305
C    20.90999985   9.51000023  51.27999878
C    16.81999969   8.67999935  50.45000076
C    16.06999969   9.19999981  51.53999710
C    14.68999958   9.35000038  51.60999680
C    24.60000038  10.52999973  50.75000000
H    25.18338585   9.86835480  51.39030075
H    19.93999863  10.39000034  53.08000183
H    19.02000046   8.39999962  48.62999725
H    21.45000076   8.56000042  48.04000092
H    23.55999947   9.52000046  48.43000031
H    22.46000099  10.39000034  52.48000336
H    14.19999981   9.77000046  52.48000336
H    25.09000015  10.88000107  49.82999802
H    24.50000000  11.49000072  51.26999664
S    13.63999939   8.03999996  47.98999786
C    10.88999939   8.06999969  48.59000397
C    12.17000008   8.42000008  48.93000031
C    12.55000019   8.88000011  50.22999573
C    11.49000072   8.93000031  51.11999893
C    10.14999962   8.60000038  50.80999756
C     9.17000008   8.60999966  51.84999847
C     7.86000013   8.39999962  51.49000168
C     7.49000025   7.85000038  50.22999573
C     8.45000076   7.78999996  49.23999786
C     9.78999996   8.19000053  49.47999954
C    13.97999954   8.96000004  50.47000122
C    14.68000031   8.36000061  49.40000153
C    16.05999947   8.19999981  49.38000107
C     6.05999994   7.53999996  49.86999893
H     5.64882135   8.03625011  48.99092484
H    10.62999916   7.53000021  47.68000031
H    11.76000023   9.22000027  52.12999725
H     9.43000031   8.67999935  52.90000153
H     7.17000008   8.53999996  52.30999756
H     8.21000004   7.53000021  48.20999908
H    16.38000107   7.69000006  48.47999954
H     5.53999996   7.96999979  50.72999954
H     5.98999977   6.44999981  49.87999725
