96

S    16.97999954   9.57999992  58.76999664
C    19.63999939   9.89999962  57.98999786
C    18.36000061   9.50000000  57.65999603
C    18.02999878   9.11000061  56.32999802
C    19.01000023   8.96000004  55.35999680
C    20.34000015   9.27999973  55.70999908
C    21.44000053   9.00000000  54.85000229
C    22.72000122   9.32999992  55.20999908
C    23.02000046   9.94999981  56.45000076
C    21.98999786  10.21000004  57.32999802
C    20.65999985   9.81999969  57.01000214
C    16.60000038   8.85000038  56.23000336
C    15.90000057   9.22999954  57.39999771
C    14.51000023   9.31999969  57.44999695
C    24.40000153  10.32999992  56.95000076
H    24.72734261   9.65396786  57.73989105
H    19.93999863  10.43000031  58.88999939
H    18.70000076   8.59000015  54.38999939
H    21.28000069   8.47999954  53.90999603
H    23.52999878   8.93000031  54.61000061
H    22.09000015  10.73999977  58.27000046
H    14.04999924   9.39999962  58.43000031
H    25.15000153  10.26999950  56.16000366
H    24.40999985  11.38000011  57.25999832
S    13.30000019   8.05000019  53.88000107
C    10.59999943   7.83999968  54.65999985
C    11.90000057   8.19999981  54.94999695
C    12.30999947   8.71999931  56.22000122
C    11.31999969   8.89000034  57.18000031
C     9.98999977   8.47999954  56.97999954
C     8.92000008   8.60000038  57.91999817
C     7.62000036   8.26000023  57.62000275
C     7.26000023   7.72000027  56.35000229
C     8.30000019   7.50999975  55.47999954
C     9.65999985   7.86000013  55.72000122
C    13.73999977   8.93000031  56.35000229
C    14.42000008   8.52999973  55.17000198
C    15.80000019   8.42000008  55.15999603
C     5.78999996   7.53000021  56.05999756
H     5.46334505   8.10519600  55.19365692
H    10.21000004   7.57999992  53.68000031
H    11.64999962   9.26000023  58.15000153
H     9.22999954   8.94999981  58.89999771
H     6.84000015   8.36999989  58.37999725
H     8.19000053   7.17000008  54.45000076
H    16.26000023   8.03999996  54.25000000
H     5.18000031   7.82999992  56.91999817
H     5.66999960   6.44000006  55.98999786
S    13.35999966   5.77000046  50.72999954
C    10.72000027   5.32999992  51.50000000
C    12.05999947   5.22000027  51.81000137
C    12.53999901   4.78999996  53.08000183
C    11.65999985   4.35999966  54.06999969
C    10.27999973   4.46999979  53.76999664
C     9.26000023   4.07999992  54.68999863
C     7.92000008   4.15999985  54.38999939
C     7.44000006   4.67000008  53.15999985
C     8.39999962   5.00999975  52.23999786
C     9.80000019   4.88000011  52.48000336
C    13.97999954   4.94999981  53.15000153
C    14.57999992   5.53999996  52.00000000
C    15.90000057   5.95000029  52.01000214
C     5.97000027   4.96000004  52.91999817
H     5.68633795   4.59123993  51.93427277
H    10.38000011   5.75999975  50.56000137
H    11.89000034   3.89999986  55.01999664
H     9.61000061   3.65999985  55.63000107
H     7.21000004   3.79999995  55.12000275
H     8.13000011   5.47999954  51.30000305
H    16.46999931   6.30000019  51.14999771
H     5.40000010   4.48000002  53.72000122
H     5.73000002   6.02999973  52.97999954
S    17.11000061   4.90000010  55.70999908
C    19.81999969   5.26000023  55.04000092
C    18.48999977   5.36999989  54.69999695
C    18.05999947   5.75000000  53.39000320
C    18.96999931   6.15999985  52.43000031
C    20.31999969   6.30000019  52.81999969
C    21.25999832   6.75000000  51.84999847
C    22.59000015   6.57999992  52.15000153
C    23.06999969   5.95000029  53.33000183
C    22.13000107   5.50000000  54.22999954
C    20.72999954   5.75999975  54.08000183
C    16.61999893   5.75000000  53.20000076
C    16.02000046   5.17000008  54.34000015
C    14.70999908   4.69999981  54.31000137
C    24.53000069   5.66999960  53.57999802
H    24.80689430   5.95399189  54.59527206
H    20.23999977   4.73000002  55.89000320
H    18.68000031   6.44000006  51.42000198
H    20.89999962   7.09999990  50.89000320
H    23.29000092   7.00999975  51.43000031
H    22.46000099   4.98000002  55.12000275
H    14.27999973   4.32999992  55.24000168
H    25.15000153   6.24000025  52.87000275
H    24.70999908   4.61999989  53.33000183
