96

S    16.28000069   9.32999992  58.89999771
C    18.97999954   9.19999981  58.30999756
C    17.70000076   8.90999985  57.91999817
C    17.34000015   8.50000000  56.59000015
C    18.34000015   8.36000061  55.63999939
C    19.65999985   8.65999985  56.03000259
C    20.65000153   8.55000019  55.00999832
C    21.98999786   8.71999931  55.27999878
C    22.32000160   9.26999950  56.55000305
C    21.38999939   9.44000053  57.54000092
C    20.02000046   9.07999992  57.36000061
C    15.90999985   8.67999935  56.37000275
C    15.19999981   9.17000008  57.50000000
C    13.82999992   9.42000008  57.52999878
C    23.77000046   9.65999985  56.70000076
H    24.24674988   9.23305988  57.58234406
H    19.17000008   9.65999985  59.27999878
H    18.19000053   8.00000000  54.62999725
H    20.29999924   8.34000015  54.00000000
H    22.62000084   8.80000019  54.40000153
H    21.63000107   9.82999992  58.53000259
H    13.21000004   9.50000000  58.40999985
H    24.38999939   9.55000019  55.79999924
H    23.64000130  10.75000000  56.75000000
S    12.74000072   8.42000008  53.81999969
C    10.07999992   8.00000000  54.68999863
C    11.35000038   8.47999954  54.92000198
C    11.71000004   8.92000008  56.23000336
C    10.73999977   8.94999981  57.21000290
C     9.38000011   8.60000038  57.04999924
C     8.34000015   8.48999977  58.01000214
C     7.09000015   8.03999996  57.65999603
C     6.85999966   7.50000000  56.37000275
C     7.86999989   7.48000050  55.43000031
C     9.11000061   8.10000038  55.72999954
C    13.14000034   9.15999985  56.33999634
C    13.83999920   8.82000065  55.14999771
C    15.22999954   8.67999935  55.14999771
C     5.46000004   7.18999958  55.89000320
H     5.19561958   7.89739656  55.10400391
H     9.71000004   7.46000004  53.81999969
H    10.95000076   9.21000004  58.25000000
H     8.53999996   8.86999989  59.01000214
H     6.28999996   8.14000034  58.39000320
H     7.67000008   7.03000021  54.45999908
H    15.75000000   8.51000023  54.20999908
H     4.71000004   7.34000015  56.68000031
H     5.32000017   6.14000034  55.58000183
S    17.81999969  10.06999969  52.56000137
C    20.52000046  10.32999992  51.88999939
C    19.25000000   9.96999931  51.51000214
C    18.81999969   9.52000046  50.20999908
C    19.85000038   9.42000008  49.29000092
C    21.18999863   9.75000000  49.59000015
C    22.21999931   9.48999977  48.63999939
C    23.54000092   9.63000011  49.01000214
C    23.90000153  10.24000072  50.24000168
C    22.89999962  10.57999992  51.11999893
C    21.53000069  10.24000072  50.90000153
C    17.39999962   9.22999954  50.11000061
C    16.69000053   9.70000076  51.24000168
C    15.31000042   9.84000015  51.20999908
C    25.32999992  10.38000011  50.72999954
H    25.68567085   9.54061890  51.32752609
H    20.72000122  10.75000000  52.87000275
H    19.69000053   8.93999958  48.33000183
H    21.97000122   8.89000034  47.77999878
H    24.31999969   9.15000057  48.43000031
H    23.13999939  11.03000069  52.06999969
H    14.75999928  10.18000031  52.09000015
H    26.02999878  10.42000008  49.87999725
H    25.38999939  11.30000019  51.31999969
S    14.11999893   8.31999969  47.76000214
C    11.44000053   8.38000011  48.61999893
C    12.75000000   8.73000050  48.81000137
C    13.17000008   9.48999977  49.94999695
C    12.20000076   9.80000019  50.87999725
C    10.81999969   9.52000046  50.68999863
C     9.81000042   9.59999943  51.69000244
C     8.48999977   9.34000015  51.44000244
C     8.10999966   8.71999931  50.21999741
C     9.03999996   8.61999989  49.20000076
C    10.40999985   8.85999966  49.47999954
C    14.63000107   9.53999996  50.01999664
C    15.29999924   8.90999985  48.95000076
C    16.67000008   8.73999977  49.02000046
C     6.78999996   8.01999950  50.01999664
H     6.19471264   8.58694077  49.30423737
H    11.19999981   7.76000023  47.76000214
H    12.60000038  10.08999920  51.84999847
H    10.11000061  10.01000023  52.64999771
H     7.79999971   9.39999962  52.28000259
H     8.67000008   8.01000023  48.37999725
H    17.20000076   8.45000076  48.11000061
H     6.28000021   7.86999989  50.97999954
H     7.00999975   7.04999971  49.55999756
