96

S    16.87999916   9.59999943  58.59000397
C    19.59000015   9.61000061  57.97000122
C    18.30000114   9.35000038  57.56000137
C    18.00000000   8.78000069  56.27999878
C    18.98999977   8.43999958  55.38999939
C    20.34000015   8.60000038  55.79999924
C    21.42999840   8.38999939  54.89999771
C    22.72999954   8.63000011  55.25000000
C    23.05000114   9.11000061  56.55000305
C    21.98999786   9.44000053  57.36000061
C    20.61000061   9.23999977  57.04999924
C    16.55999947   8.64999962  56.10000229
C    15.85000038   9.15999985  57.21000290
C    14.47999954   9.36999989  57.19999695
C    24.44999886   9.52999973  56.90999985
H    24.78349495   9.05459499  57.83242798
H    19.78000069   9.96999931  58.97999573
H    18.68999863   8.23000050  54.36999893
H    21.15999985   8.21000004  53.86000061
H    23.48999977   8.80999947  54.48999786
H    22.20000076   9.96000004  58.29999924
H    14.01000023   9.92999935  58.01000214
H    25.06000137   9.26999950  56.04000092
H    24.47000122  10.60999966  57.09999847
S    13.32999992   7.73999977  53.79000092
C    10.65000057   7.64999962  54.58000183
C    11.90999985   8.14000034  54.79000092
C    12.25999928   8.73000050  56.04999924
C    11.23999977   8.94999981  56.95999908
C     9.89000034   8.67999935  56.63999939
C     8.80999947   9.02999973  57.50000000
C     7.50000000   8.71999931  57.25000000
C     7.18999958   7.97999954  56.06999969
C     8.19999981   7.65999985  55.18000031
C     9.55999947   8.01000023  55.41999817
C    13.69999981   8.76999950  56.19999695
C    14.42000008   8.23999977  55.10000229
C    15.80000019   8.18000031  55.00999832
C     5.84999990   7.32999992  55.84999847
H     5.32213354   7.98626614  55.15806580
H    10.47999954   7.00000000  53.72000122
H    11.42000008   9.26999950  57.98999786
H     9.06000042   9.52000046  58.43999863
H     6.71000004   8.85999966  57.97999954
H     7.96999979   7.18999958  54.22999954
H    16.28999901   7.76000023  54.13999939
H     5.31000042   7.00999975  56.76000214
H     6.11999989   6.44000006  55.27000046
S    17.28999901  10.17000008  52.67000198
C    19.97999954   9.81000042  52.02000046
C    18.65999985   9.67000008  51.66999817
C    18.19000053   8.93000031  50.54000092
C    19.13999939   8.43000031  49.66999817
C    20.51000214   8.67000008  49.88999939
C    21.51000023   8.40999985  48.90999603
C    22.85000038   8.53999996  49.16999817
C    23.26999855   9.22000027  50.34999847
C    22.32999992   9.52999973  51.31000137
C    20.94000053   9.35000038  51.07999802
C    16.73999977   8.96000004  50.41999817
C    16.07999992   9.64999962  51.47999573
C    14.70999908   9.77000046  51.63000107
C    24.71999931   9.61000061  50.52999878
H    25.18186760   8.96338272  51.27609634
H    20.17999840  10.36999893  52.93000031
H    18.86000061   7.99000025  48.70999908
H    21.14000130   8.18000031  47.90999985
H    23.67000198   8.05999947  48.63999939
H    22.67000008   9.96000004  52.25000000
H    14.25000000  10.15999985  52.52999878
H    25.20000076   9.46000004  49.54999924
H    24.75000000  10.65999985  50.84000015
S    13.55000019   7.81000042  48.33000183
C    10.85000038   8.11999989  48.81999969
C    12.13000107   8.46000004  49.16999817
C    12.53000069   9.04999924  50.40999985
C    11.51000023   9.30000019  51.30000305
C    10.15999985   8.98999977  51.00999832
C     9.11000061   9.10000038  51.97999954
C     7.83999968   8.71000004  51.63999939
C     7.49000025   8.32999992  50.31999969
C     8.47999954   8.03999996  49.40999985
C     9.81999969   8.36999989  49.75999832
C    13.96999931   9.26000023  50.54999924
C    14.63999939   8.57999992  49.50000000
C    16.00000000   8.32999992  49.40999985
C     6.05000019   7.92000008  50.08999634
H     5.60736227   8.48400593  49.26897812
H    10.67000008   7.57999992  47.88999939
H    11.65999985   9.73999977  52.29000092
H     9.42000008   9.55000019  52.91999817
H     7.05999947   8.88000011  52.37999725
H     8.34000015   7.50000000  48.47999954
H    16.44000053   7.63000011  48.70999908
H     5.31000042   7.88999987  50.90000153
H     6.11999989   6.85999966  49.80999756
