96

S    16.90999985   9.27999973  58.69999695
C    19.62000084   9.61999989  57.78999710
C    18.29000092   9.34000015  57.57999802
C    17.89999962   8.82999992  56.29000092
C    18.89000130   8.64000034  55.34999847
C    20.26000023   8.94999981  55.54999924
C    21.27000046   8.67000008  54.59000015
C    22.57999802   8.94999981  54.86000061
C    22.98999977   9.53999996  56.09000397
C    22.01000023   9.82999992  57.02000046
C    20.63999939   9.52000046  56.81999969
C    16.46999931   8.59000015  56.18999863
C    15.77999973   8.84000015  57.39999771
C    14.40999985   9.06999969  57.49000168
C    24.43000031   9.94000053  56.30000305
H    24.92029381   9.35022736  57.07452011
H    19.96999931   9.82999992  58.80000305
H    18.47999954   8.27000046  54.40999985
H    21.02000046   8.34999943  53.57999802
H    23.38000107   8.80999947  54.13999939
H    22.22999954  10.43000031  57.90000153
H    13.94999981   9.38000011  58.41999817
H    24.84999847  10.01000023  55.28999710
H    24.30999947  11.00000000  56.56999969
S    13.20000076   8.06999969  53.83999634
C    10.51000023   7.73999977  54.66999817
C    11.79999924   8.15999985  54.92000198
C    12.18999958   8.57999992  56.23000336
C    11.28000069   8.78999996  57.25000000
C     9.92999935   8.47000027  56.97999954
C     8.89999962   8.65999985  57.95999908
C     7.63000011   8.26000023  57.63000107
C     7.22000027   7.77999973  56.36000061
C     8.18000031   7.76999998  55.35999680
C     9.55000019   7.97999954  55.68999863
C    13.61999989   8.80999947  56.37000275
C    14.29999924   8.52000046  55.15999603
C    15.67999935   8.45000076  55.04000092
C     5.78999996   7.44999981  56.04000092
H     5.47118425   7.81132412  55.06229782
H    10.24000072   7.17999983  53.77999878
H    11.61000061   9.23999977  58.18999863
H     9.18000031   8.94999981  58.96999741
H     6.90999985   8.17000008  58.43999863
H     7.92999983   7.55000019  54.33000183
H    16.05999947   8.23000050  54.05000305
H     5.21000004   7.82000017  56.88999939
H     5.51999998   6.40999985  56.27999878
S    13.36999989   5.73000002  51.00999832
C    10.72000027   5.25000000  51.83000183
C    12.06999969   5.07000017  52.02000046
C    12.56999969   4.48000002  53.22999954
C    11.69000053   3.88999987  54.12000275
C    10.31000042   4.18000031  54.02000046
C     9.35999966   3.93000007  55.05000305
C     8.00000000   4.07000017  54.86000061
C     7.49000025   4.57999992  53.62999725
C     8.40999985   5.03000021  52.71999741
C     9.81000042   4.82999992  52.83000183
C    14.01000023   4.63000011  53.29999924
C    14.60999966   5.31000042  52.19999695
C    15.93999958   5.73000002  52.21000290
C     6.02999973   4.35999966  53.29999924
H     5.77389526   4.75838423  52.31826401
H    10.36000061   5.98999977  51.11000061
H    12.03999996   3.31999993  54.98000336
H     9.86999989   3.45000005  55.86999893
H     7.42000008   3.61999989  55.65999985
H     8.13000011   5.47999954  51.77000046
H    16.22999954   6.12999964  51.24000168
H     5.75000000   3.30000019  53.36000061
H     5.38000011   4.82999992  54.05000305
S    17.34000015   4.26999998  55.61999893
C    19.95000076   4.96000004  54.92000198
C    18.60000038   5.07999992  54.66999817
C    18.18000031   5.66999960  53.43999863
C    19.07999992   6.24000025  52.54000092
C    20.45999908   6.17000008  52.81000137
C    21.45999908   6.39999962  51.81999969
C    22.79999924   6.21000004  52.08000183
C    23.19999886   5.38000011  53.15999985
C    22.25000000   5.07000017  54.10999680
C    20.88999939   5.46000004  53.99000168
C    16.76000023   5.40000010  53.29000092
C    16.17000008   4.65000010  54.34000015
C    14.84000015   4.21999979  54.34999847
C    24.63000107   4.94000006  53.31999969
H    25.09227371   5.33826590  54.22320938
H    20.23999977   4.35999966  55.77000046
H    18.82999992   6.28999996  51.49000168
H    21.07000160   6.63000011  50.83000183
H    23.57000160   6.52999973  51.38999939
H    22.34999847   4.33999968  54.91000366
H    14.40999985   3.88000011  55.27999878
H    25.17999840   5.23000002  52.41000366
H    24.77999878   3.86000013  53.43000031
