96

S    16.59000015  10.14999962  58.60000229
C    19.31999969  10.01000023  57.97999954
C    18.02000046   9.77999973  57.61000061
C    17.69000053   9.27999973  56.31000137
C    18.77000046   9.06000042  55.47000122
C    20.13000107   9.30999947  55.77999878
C    21.19999886   9.06000042  54.87999725
C    22.50999832   9.25000000  55.27999878
C    22.79000092   9.84000015  56.53999710
C    21.77999878   9.98999977  57.45999908
C    20.42000008   9.80000019  57.09999847
C    16.25000000   9.19000053  56.13999939
C    15.52000046   9.65999985  57.27000427
C    14.14999962   9.86999989  57.25000000
C    24.20999908  10.19999981  56.88999939
H    24.74566650   9.33579350  57.28282166
H    19.47000122  10.39000034  58.99000168
H    18.54999924   8.47999954  54.58000183
H    20.90999985   8.61999989  53.93000031
H    23.36999893   9.02000046  54.65000153
H    21.93000031  10.34000015  58.47999954
H    13.63999939  10.07999992  58.18999863
H    24.73999977  10.55999947  55.98999786
H    24.20999908  10.98000050  57.65999603
S    13.02999973   8.51000023  53.73000336
C    10.34999943   8.17000008  54.52999878
C    11.61000061   8.65999985  54.78000259
C    11.96000004   9.25000000  56.04000092
C    10.98000050   9.44000053  57.00000000
C     9.67000008   9.00000000  56.70999908
C     8.61999989   9.06000042  57.67000198
C     7.39000034   8.48999977  57.42000198
C     7.00000000   8.05999947  56.11999893
C     7.99000025   8.03999996  55.15999603
C     9.34000015   8.25000000  55.52000046
C    13.38999939   9.51000023  56.13999939
C    14.13000011   8.98999977  55.05000305
C    15.51000023   8.84000015  55.00000000
C     5.55999994   7.94000053  55.70000076
H     5.21358347   8.49850941  54.83042526
H    10.10000038   7.85000038  53.52000427
H    11.14999962   9.92999935  57.95999908
H     8.76999950   9.67000008  58.55999756
H     6.63999987   8.61999989  58.18999863
H     7.76999998   7.69999981  54.15000153
H    15.98999977   8.38000011  54.15000153
H     4.88999987   8.18000031  56.53999710
H     5.40000010   6.85999966  55.56999969
S    13.73000050   6.24000025  50.75000000
C    11.00999928   5.75000000  51.40999603
C    12.35000038   5.71000004  51.73999786
C    12.74000072   5.21000004  53.02000046
C    11.82999992   4.88000011  54.01000214
C    10.46000004   4.86999989  53.66000366
C     9.44000053   4.39000034  54.52999878
C     8.14000034   4.35999966  54.06999969
C     7.67000008   4.92000008  52.84999847
C     8.67999935   5.26999998  51.97999954
C    10.06000042   5.23999977  52.31999969
C    14.19000053   5.29999971  53.16999817
C    14.86999989   5.84999990  52.05999756
C    16.22999954   6.12999964  52.04999924
C     6.21999979   4.96000004  52.43000031
H     5.85741711   3.95756483  52.20249939
H    10.71000004   6.25000000  50.48999786
H    12.07999992   4.56999969  55.01999664
H     9.80000019   4.00000000  55.47999954
H     7.46999979   3.84999990  54.75000000
H     8.34999943   5.75000000  51.06999969
H    16.60000038   6.67999983  51.18000031
H     5.59999990   5.35000038  53.25000000
H     6.10000038   5.58000040  51.53999710
S    17.46999931   4.76999998  55.54000092
C    20.19000053   5.13000011  54.93999863
C    18.86999893   5.27999973  54.58000183
C    18.46999931   5.84999990  53.33000183
C    19.40999985   6.48000002  52.52999878
C    20.78000069   6.43000031  52.90000153
C    21.76000214   6.84999990  51.95000076
C    23.08000183   6.53999996  52.18999863
C    23.47999954   5.98000002  53.43000031
C    22.55000114   5.46000004  54.29999924
C    21.15999985   5.69000006  54.08000183
C    17.02999878   5.84000015  53.15999985
C    16.36000061   5.17000008  54.20999908
C    15.00000000   4.86000013  54.22000122
C    24.92000198   5.53999996  53.56999969
H    25.44621277   5.93821526  54.43754196
H    20.42000008   4.63999987  55.87999725
H    19.14999962   7.04999971  51.65000153
H    21.35000038   7.07000017  50.97000122
H    23.78000069   6.65999985  51.37000275
H    22.90999985   4.88999987  55.14999771
H    14.63000107   4.38000011  55.12000275
H    25.38000107   5.88000011  52.63999939
H    24.93999863   4.44000006  53.57999802
