96

S    16.72999954   9.47000027  59.09000015
C    19.42000008   9.57999992  58.44999695
C    18.15000153   9.22999954  58.04999924
C    17.77000046   8.78000069  56.73999786
C    18.82999992   8.52999973  55.90000153
C    20.12000084   9.02000046  56.20999908
C    21.19999886   9.06000042  55.27999878
C    22.52000046   9.38000011  55.48999786
C    22.80999947   9.85999966  56.79999924
C    21.80999947   9.98000050  57.72999573
C    20.46999931   9.55999947  57.50000000
C    16.32999992   8.61999989  56.59000015
C    15.64000034   9.06000042  57.75000000
C    14.26000023   9.13000011  57.88000107
C    24.21999931  10.17000008  57.23999786
H    24.58179092   9.51735783  58.03451920
H    19.69000053  10.00000000  59.40999985
H    18.60999870   7.99000025  54.98000336
H    20.98999977   8.67000008  54.29000092
H    23.29000092   9.19999981  54.75000000
H    21.97999954  10.47000027  58.68999863
H    13.75000000   9.32999992  58.81999969
H    24.75000000  10.08999920  56.29000092
H    24.23000145  11.19999981  57.63000107
S    13.22000027   7.57999992  54.31999969
C    10.53999996   7.44999981  54.98000336
C    11.79999924   7.88000011  55.34999847
C    12.11999989   8.56000042  56.56999969
C    11.00000000   8.86999989  57.30999756
C     9.68000031   8.40999985  57.04999924
C     8.57999992   8.52999973  57.94000244
C     7.28999996   8.27000046  57.55000305
C     7.00999975   7.75000000  56.25999832
C     8.07999992   7.42999983  55.45999908
C     9.43000031   7.69000006  55.83000183
C    13.55999947   8.71000004  56.75000000
C    14.25000000   8.17000008  55.63999939
C    15.62999916   8.06999969  55.51000214
C     5.63000011   7.30000019  55.83000183
H     5.23833799   8.01211262  55.10364532
H    10.38000011   6.83000040  54.09999847
H    11.13999939   9.43000031  58.22999954
H     8.71000004   9.11999989  58.83999634
H     6.44999981   8.71000004  58.09000015
H     8.01999950   6.93000031  54.50000000
H    16.10999870   7.63000011  54.64000320
H     4.94999981   7.37999964  56.70000076
H     5.51999998   6.30999994  55.37000275
S    17.06999969   9.77000046  52.98999786
C    19.71999931  10.26000023  52.22000122
C    18.47999954   9.72000027  51.91999817
C    18.25000000   9.15000057  50.63000107
C    19.29999924   9.15000057  49.72999954
C    20.58000183   9.68999958  50.04000092
C    21.61999893   9.61000061  49.08000183
C    22.88000107  10.07999992  49.40000153
C    23.12999916  10.65000057  50.66999817
C    22.14999962  10.69000053  51.63999939
C    20.84000015  10.21999931  51.35000229
C    16.80999947   9.00000000  50.48999786
C    16.02000046   9.27999973  51.63000107
C    14.63000107   9.32999992  51.69000244
C    24.51000023  11.11999989  51.04999924
H    24.98834229  10.43461227  51.74966431
H    19.88000107  10.59999943  53.22999954
H    18.97999954   8.78000069  48.75999832
H    21.40000153   9.27999973  48.06999969
H    23.59999847  10.10000038  48.59000397
H    22.21999931  11.11999989  52.63999939
H    14.11000061   9.61999989  52.58999634
H    25.10999870  11.25000000  50.13999939
H    24.41999817  12.05999947  51.60999680
S    13.67000008   8.32999992  47.97000122
C    10.95000076   8.01999950  48.62999725
C    12.22000027   8.42000008  48.99000168
C    12.48999977   8.93000031  50.30000305
C    11.46000004   9.04999924  51.20999908
C    10.13000011   8.71000004  50.84000015
C     9.06000042   8.69999981  51.77999878
C     7.76000023   8.61999989  51.35000229
C     7.46000004   8.03999996  50.08999634
C     8.53999996   7.73999977  49.29000092
C     9.89999962   8.07999992  49.56999969
C    13.93000031   9.04999924  50.51000214
C    14.68999958   8.69000053  49.36999893
C    16.07999992   8.69000053  49.34000015
C     6.05999994   7.51999950  49.85000229
H     5.49150991   8.10270309  49.12517548
H    10.77999973   7.71000004  47.60000229
H    11.64999962   9.22999954  52.25999832
H     9.35000038   9.11000061  52.75000000
H     7.00000000   9.11000061  51.95999908
H     8.40999985   7.27999973  48.31999969
H    16.68000031   8.39999962  48.47000122
H     5.58000040   7.67000008  50.81999969
H     6.05999994   6.44999981  49.64000320
