96

S    16.35000038   9.42000008  58.87000275
C    19.04999924   9.72000027  58.08000183
C    17.79999924   9.19000053  57.87000275
C    17.53999901   8.48999977  56.63999939
C    18.52000046   8.23000050  55.70000076
C    19.78000069   8.85000038  55.86999893
C    20.86000061   8.67000008  54.94999695
C    22.11999893   9.02999973  55.35999680
C    22.36000061   9.84000015  56.50000000
C    21.30000114  10.22999954  57.29000092
C    20.02000046   9.65999985  57.04000092
C    16.10999870   8.30000019  56.46999741
C    15.34000015   8.78000069  57.56000137
C    13.99000072   9.11000061  57.48000336
C    23.75999832  10.31000042  56.81000137
H    24.26469803   9.78397751  57.62035751
H    19.29999924  10.31000042  58.95999908
H    18.31999969   7.59999990  54.84000397
H    20.65999985   8.23999977  53.96999741
H    22.93000031   8.82000065  54.66999817
H    21.42000008  10.65999985  58.27999878
H    13.48999977   9.63000011  58.29000092
H    24.37999916  10.34999943  55.90999985
H    23.74000168  11.38000011  57.04000092
S    13.02999973   7.65999985  53.90999603
C    10.27999973   7.64999962  54.52000046
C    11.56000042   8.05999947  54.81999969
C    11.85999966   8.59000015  56.11000061
C    10.80999947   8.97999954  56.93000031
C     9.47000027   8.60999966  56.63999939
C     8.34999943   9.01000023  57.42000198
C     7.07000017   8.67000008  57.06999969
C     6.81999969   7.82000017  55.94999695
C     7.86000013   7.62000036  55.07999802
C     9.19999981   7.96000004  55.38000107
C    13.28999996   8.69000053  56.33999634
C    14.06000042   8.28999996  55.20999908
C    15.44000053   8.10000038  55.26000214
C     5.49000025   7.13000011  55.72000122
H     4.84746361   7.70828342  55.05604553
H    10.03999901   6.81999969  53.85000229
H    11.03999996   9.44999981  57.88000107
H     8.56000042   9.53999996  58.34000015
H     6.30999994   8.97000027  57.77999878
H     7.67000008   7.13999987  54.12000275
H    15.90000057   7.78999996  54.31999969
H     5.01999950   7.23000002  56.70999908
H     5.55999994   6.05999994  55.50000000
S    13.57999992   5.92000008  51.04999924
C    10.88999939   5.31000042  51.52999878
C    12.22000027   5.01999950  51.75000000
C    12.63000011   4.21999979  52.87000275
C    11.68000031   3.67000008  53.70999908
C    10.31000042   3.84999990  53.40999985
C     9.30000019   3.35000014  54.29999924
C     7.97999954   3.58000016  53.97999573
C     7.60999966   4.21999979  52.77000046
C     8.52000046   4.94000006  52.04000092
C     9.89999962   4.74000025  52.36000061
C    14.02999973   4.40000010  53.18999863
C    14.68999958   5.19999981  52.22999954
C    15.98999977   5.65999985  52.43000031
C     6.17999983   4.69000006  52.60000229
H     5.79525328   4.41925240  51.61676025
H    10.53999996   5.78000021  50.61000061
H    11.94000053   3.23000002  54.66999817
H     9.67000008   3.17000008  55.30000305
H     7.27999973   3.30000019  54.75000000
H     8.13000011   5.59999990  51.26999664
H    16.28999901   6.40999985  51.70999908
H     5.56999969   4.26999998  53.41999817
H     6.19999981   5.78999996  52.68000031
S    17.12000084   3.84999990  55.75000000
C    19.84000015   4.40000010  55.31000137
C    18.53000069   4.56999969  54.93999863
C    18.18000031   5.19999981  53.70999908
C    19.18000031   5.71000004  52.88999939
C    20.53999901   5.61999989  53.27999878
C    21.56999969   5.98000002  52.36000061
C    22.88000107   5.82000017  52.74000168
C    23.26000023   5.19999981  53.95999908
C    22.25000000   4.67999983  54.75000000
C    20.88000107   4.90000010  54.47999954
C    16.75000000   5.07999992  53.44999695
C    16.04999924   4.32999992  54.41999817
C    14.70999908   3.95000005  54.34000015
C    24.70000076   4.94000006  54.31999969
H    25.06951332   5.73587227  54.96664429
H    20.09000015   3.95000005  56.26999664
H    19.10000038   5.95000029  51.83000183
H    21.31999969   6.37000036  51.37000275
H    23.68999863   6.05999994  52.05999756
H    22.50999832   4.18000031  55.68000031
H    14.32999992   3.26999998  55.08999634
H    25.28000069   4.92999983  53.39000320
H    24.75000000   3.95000005  54.79999924
