96

S    16.10000038   9.65999985  58.61000061
C    18.84000015   9.51000023  58.09000015
C    17.56000137   9.17000008  57.72999573
C    17.30999947   8.57999992  56.45000076
C    18.38000107   8.31999969  55.61000061
C    19.63999939   8.90999985  55.86999893
C    20.72999954   8.75000000  54.95999908
C    21.98999786   9.10000038  55.38000107
C    22.20000076   9.82999992  56.58000183
C    21.17000198  10.03000069  57.47000122
C    19.93000031   9.38000011  57.19999695
C    15.88999939   8.55000019  56.16000366
C    15.14000034   9.13999939  57.21000290
C    13.76000023   9.27999973  57.14000320
C    23.54000092  10.44999981  56.91999817
H    24.11089897   9.80060196  57.58366776
H    19.02000046  10.06000042  59.01000214
H    18.22999954   7.63000011  54.78000259
H    20.50000000   8.28999996  54.00000000
H    22.72999954   9.10000038  54.58000183
H    21.19999886  10.52999973  58.43000031
H    13.15000057   9.55000019  57.98999786
H    24.03000069  10.73999977  55.97999954
H    23.23999786  11.36999989  57.43000031
S    12.81999969   7.78999996  53.60000229
C    10.05000019   7.67000008  54.20000076
C    11.33999920   7.97999954  54.56999969
C    11.67000008   8.55000019  55.84000015
C    10.69000053   8.67999935  56.81000137
C     9.38000011   8.23000050  56.55000305
C     8.36999989   8.23000050  57.55000305
C     7.07999992   7.88000011  57.22000122
C     6.74000025   7.60999966  55.86999893
C     7.69000006   7.59999990  54.87999725
C     9.06000042   7.79999971  55.20999908
C    13.09000015   8.86999989  55.97999954
C    13.86999989   8.43000031  54.87999725
C    15.24000072   8.19999981  54.97000122
C     5.28999996   7.59999990  55.45000076
H     5.11235428   7.85580969  54.40544128
H     9.71000004   7.14999962  53.30999756
H    10.93999958   9.15999985  57.75000000
H     8.60999966   8.64000034  58.53000259
H     6.28999996   8.09000015  57.94000244
H     7.53000021   7.39000034  53.81999969
H    15.71000004   7.71000004  54.13000107
H     4.76999998   8.34000015  56.05999756
H     4.79999971   6.63000011  55.61000061
S    17.36999893   9.68999958  52.84000015
C    19.92000008  10.39000034  52.15000153
C    18.78999901   9.71000004  51.77000046
C    18.46999931   9.26999950  50.45000076
C    19.52000046   9.21000004  49.54999924
C    20.75000000   9.84000015  49.86000061
C    21.88999939   9.73999977  49.02000046
C    23.12999916  10.24000072  49.34000015
C    23.35000038  10.67999935  50.68000031
C    22.27999878  10.72999954  51.53999710
C    20.95000076  10.39999962  51.17000198
C    17.02999878   9.15999985  50.28999710
C    16.28000069   9.39999962  51.46999741
C    14.89999962   9.48999977  51.45999908
C    24.77999878  10.90999985  51.09000397
H    25.27719879  10.02214622  51.48065567
H    20.15000153  10.75000000  53.15000153
H    19.48999977   8.63000011  48.62999725
H    21.68000031   9.18000031  48.11000061
H    23.92999840  10.19999981  48.61000061
H    22.34000015  11.06999969  52.57999802
H    14.32000065   9.61999989  52.36999893
H    25.28000069  11.35000038  50.21999741
H    24.89999962  11.75000000  51.77999878
S    13.96000004   8.27000046  47.84000015
C    11.26999950   7.86999989  48.47000122
C    12.50000000   8.38000011  48.82999802
C    12.75000000   8.93999958  50.13000107
C    11.65999985   9.15999985  50.96000290
C    10.36999893   8.69999981  50.61000061
C     9.22999954   9.06000042  51.38000107
C     8.00000000   8.56000042  51.03000259
C     7.76000023   7.88999987  49.79999924
C     8.85000038   7.64999962  49.00000000
C    10.18000031   8.00000000  49.36999893
C    14.17000008   9.18000031  50.30000305
C    14.96999931   8.82000065  49.18000031
C    16.36000061   8.76999950  49.12000275
C     6.44000006   7.26000023  49.40999985
H     5.84013224   7.97412872  48.84583664
H    11.03999996   7.57999992  47.44999695
H    11.90000057   9.73999977  51.84000015
H     9.42000008   9.48999977  52.36000061
H     7.09999990   8.67999935  51.63000107
H     8.76999950   7.04999971  48.09999847
H    16.82999992   8.43000031  48.20000076
H     5.75000000   6.88000011  50.17000198
H     6.63000011   6.38999987  48.75999832
