96

S    16.46999931   9.77000046  58.83999634
C    19.13999939   9.63999939  58.18000031
C    17.85000038   9.30999947  57.83000183
C    17.47999954   8.69000053  56.59000015
C    18.48999977   8.30000019  55.72999954
C    19.82999992   8.60999966  56.04999924
C    20.94000053   8.40999985  55.18000031
C    22.21999931   8.86999989  55.44000244
C    22.47999954   9.59999943  56.63000107
C    21.47000122   9.81000042  57.52999878
C    20.15999985   9.34000015  57.23999786
C    16.03000069   8.61999989  56.43000031
C    15.39000034   9.11999989  57.58999634
C    14.01999950   9.35999966  57.63000107
C    23.90000153  10.01000023  56.97999954
H    24.34298706   9.33122826  57.70878601
H    19.36000061  10.19000053  59.09000015
H    18.12999916   7.72000027  54.88999939
H    20.89999962   7.96000004  54.19000244
H    23.02000046   8.56999969  54.78000259
H    21.67000008  10.32999992  58.46000290
H    13.55000019   9.72999954  58.54000092
H    24.56999969  10.06000042  56.11000061
H    23.77000046  11.05999947  57.29000092
S    12.84000015   7.95000029  54.01000214
C    10.18000031   8.05000019  54.68999863
C    11.47999954   8.31999969  55.07999802
C    11.84000015   8.85000038  56.36000061
C    10.80999947   9.01000023  57.27000427
C     9.47000027   8.69000053  56.95000076
C     8.46000004   8.73999977  57.95999908
C     7.13999987   8.48999977  57.63999939
C     6.80999994   8.03999996  56.33999634
C     7.76999998   7.97999954  55.34999847
C     9.13999939   8.27000046  55.61999893
C    13.27999973   8.97999954  56.50000000
C    13.89999962   8.40999985  55.35999680
C    15.26000023   8.13000011  55.37000275
C     5.42999983   7.46999979  56.07999802
H     4.99724150   8.05883503  55.27123642
H    10.03000069   7.59000015  53.72000122
H    11.03000069   9.36999989  58.27000046
H     8.69999981   9.01000023  58.97999573
H     6.39999962   8.28999996  58.40999985
H     7.49000025   7.63000011  54.36000061
H    15.75000000   7.59999990  54.55999756
H     4.74000025   7.59999990  56.91999817
H     5.65999985   6.40999985  55.94999695
S    16.86000061   9.65999985  52.77000046
C    19.62000084   9.61000061  52.25999832
C    18.32999992   9.35000038  51.83000183
C    18.04999924   8.94999981  50.47999954
C    19.09000015   8.75000000  49.59000015
C    20.39999962   9.09000015  50.01999664
C    21.47999954   9.11000061  49.09000015
C    22.70999908   9.59999943  49.45999908
C    23.01000214  10.11000061  50.75000000
C    22.01000023   9.98999977  51.68000031
C    20.71000099   9.52000046  51.35000229
C    16.61000061   8.90999985  50.24000168
C    15.85000038   9.35999966  51.33999634
C    14.47999954   9.61000061  51.35000229
C    24.37999916  10.69000053  51.03000259
H    24.92976189  10.14023876  51.79395294
H    19.76000023  10.17000008  53.18000031
H    19.03000069   8.59000015  48.52000427
H    21.31999969   8.60999966  48.13999939
H    23.45000076   9.61000061  48.66000366
H    22.26000023  10.34999943  52.67000198
H    13.88000011   9.78999996  52.23999786
H    24.97999954  10.52000046  50.13000107
H    24.30999947  11.77000046  51.25000000
S    13.34000015   8.17000008  47.81000137
C    10.67000008   8.14999962  48.61000061
C    11.95000076   8.61999989  48.81000137
C    12.35999966   9.17000008  50.06999969
C    11.44000053   9.44000053  51.05999756
C    10.08999920   9.09000015  50.83000183
C     9.06999969   9.39999962  51.77999878
C     7.79999971   8.92000008  51.56000137
C     7.50000000   8.14999962  50.40000153
C     8.38000011   7.97999954  49.34999847
C     9.71000004   8.39999962  49.62999725
C    13.81000042   9.23999977  50.18000031
C    14.48999977   8.76000023  49.02999878
C    15.85999966   8.56999969  49.10999680
C     6.11000013   7.62000036  50.14999771
H     5.70671177   8.19309425  49.31512070
H    10.39000034   7.50000000  47.78999710
H    11.78999996   9.63999939  52.06999969
H     9.44000053   9.70000076  52.76000214
H     7.03999996   8.93999958  52.32999802
H     8.07999992   7.48000050  48.43999863
H    16.46999931   8.36999989  48.22999954
H     5.47999954   7.55000019  51.04000092
H     6.09000015   6.56000042  49.86000061
