96

S    16.68000031  10.01000023  58.41999817
C    19.44000053   9.88000011  57.77999878
C    18.12000084   9.63000011  57.44999695
C    17.70000076   8.88000011  56.30000305
C    18.68999863   8.50000000  55.40999985
C    20.05000114   8.80999947  55.65000153
C    20.97999954   8.59000015  54.59999847
C    22.27999878   8.86999989  54.95999908
C    22.72000122   9.55000019  56.12999725
C    21.77999878   9.85000038  57.09000015
C    20.43999863   9.40999985  56.88999939
C    16.26000023   8.69999981  56.20999908
C    15.52999973   9.34000015  57.23999786
C    14.14000034   9.32999992  57.29000092
C    24.15999985   9.98000050  56.31999969
H    24.53076744   9.47376060  57.21126556
H    19.68000031  10.71000004  58.43999863
H    18.37000084   8.11999989  54.45000076
H    20.59999847   8.23000050  53.64999771
H    23.02999878   8.71000004  54.19000244
H    22.04000092  10.42000008  57.97000122
H    13.63000011   9.72000027  58.15999985
H    24.77000046   9.68000031  55.47000122
H    24.14999962  11.06999969  56.37000275
S    13.07000065   7.57999992  53.90999603
C    10.34000015   7.82000017  54.43000031
C    11.63000011   7.97999954  54.86000061
C    11.95000076   8.64999962  56.09000397
C    10.92000008   8.80999947  56.98999786
C     9.59000015   8.47000027  56.65000153
C     8.52000046   8.63000011  57.56999969
C     7.25000000   8.23000050  57.22999954
C     6.94000006   7.76999998  55.90999985
C     7.92000008   7.69000006  54.94999695
C     9.25000000   8.02999973  55.31999969
C    13.40000057   8.78000069  56.24000168
C    14.14000034   8.21000004  55.17000198
C    15.52999973   8.13000011  55.15999603
C     5.55000019   7.42000008  55.45999908
H     5.16653633   8.10881329  54.70727539
H    10.03000069   7.36000013  53.50000000
H    11.13999939   9.13999939  58.00000000
H     8.69000053   9.06999969  58.54999924
H     6.48000002   8.31999969  57.98999786
H     7.77999973   7.09999990  54.05000305
H    16.01000023   8.01000023  54.19000244
H     4.88999987   7.60999966  56.31999969
H     5.45000029   6.39999962  55.08999634
S    17.15999985   9.96000004  52.72999573
C    19.78000069  10.32999992  51.93000031
C    18.55999947   9.75000000  51.65999985
C    18.26000023   9.15999985  50.40000153
C    19.26000023   8.93999958  49.47000122
C    20.55999947   9.44000053  49.72999954
C    21.68999863   9.11000061  48.94000244
C    23.01000214   9.44999981  49.16999817
C    23.19000053  10.15999985  50.38000107
C    22.17000008  10.36999893  51.27999878
C    20.79999924  10.15999985  50.94999695
C    16.84000015   8.86999989  50.25000000
C    16.17000008   9.30999947  51.40999603
C    14.78000069   9.30000019  51.50000000
C    24.56000137  10.59000015  50.86999893
H    24.90729523   9.88832283  51.62837601
H    20.00999832  10.80999947  52.87000275
H    19.15999985   8.32999992  48.56999969
H    21.38999939   8.52000046  48.06999969
H    23.81000137   9.13000011  48.52000427
H    22.46000099  10.62000084  52.29000092
H    14.11000061   9.35000038  52.36000061
H    25.19000053  10.59000015  49.98000336
H    24.51000023  11.61999893  51.25000000
S    13.67000008   8.19999981  47.76000214
C    10.97000027   8.32999992  48.50999832
C    12.28999996   8.61999989  48.79000092
C    12.61000061   9.11000061  50.10000229
C    11.61000061   9.34000015  51.03000259
C    10.26000023   9.07999992  50.70999908
C     9.22000027   9.23999977  51.68000031
C     7.92999983   8.82000065  51.46999741
C     7.63999987   8.27000046  50.19000244
C     8.56999969   8.14000034  49.19000244
C     9.89999962   8.56999969  49.41999817
C    14.04999924   9.04999924  50.33000183
C    14.70000076   8.56999969  49.16999817
C    16.09000015   8.50000000  49.12000275
C     6.19000006   7.88999987  50.00000000
H     5.69253874   8.57933903  49.31776428
H    10.77000046   7.77999973  47.60000229
H    11.90000057   9.48000050  52.05999756
H     9.48000050   9.72999954  52.62000275
H     7.17999983   8.93999958  52.23999786
H     8.26000023   7.86000013  48.18000031
H    16.44000053   8.36000061  48.11000061
H     5.69999981   7.92000008  50.98999786
H     6.14000034   6.84999990  49.64000320
