96

S    17.54999924  10.00000000  58.69999695
C    20.17000008  10.44999981  57.83000183
C    18.92000008   9.92000008  57.56999969
C    18.52000046   9.26999950  56.36000061
C    19.50000000   9.17000008  55.38000107
C    20.79999924   9.67000008  55.63000107
C    21.90000153   9.28999996  54.81999969
C    23.19999886   9.57999992  55.15999603
C    23.52999878  10.31999969  56.32999802
C    22.50000000  10.69000053  57.15999985
C    21.14999962  10.40999985  56.81000137
C    17.12000084   8.88000011  56.26999664
C    16.48999977   9.27999973  57.47000122
C    15.10000038   9.31999969  57.54000092
C    24.96999931  10.65000057  56.63000107
H    25.42735672  10.07830524  57.43752289
H    20.40999985  10.72000027  58.85000229
H    19.18000031   8.71000004  54.45000076
H    21.86000061   8.65999985  53.93000031
H    23.92999840   9.19999981  54.43999863
H    22.77000046  10.82999992  58.20000076
H    14.63999939   9.59000015  58.47999954
H    25.62999916  10.57000065  55.75000000
H    24.97999954  11.69999981  56.95999908
S    13.82999992   7.97999954  54.09000015
C    11.13000011   8.26000023  54.78000259
C    12.44999981   8.52999973  55.06000137
C    12.79000092   9.21000004  56.26999664
C    11.77000046   9.59999943  57.11000061
C    10.42000008   9.25000000  56.84999847
C     9.39999962   9.23999977  57.83000183
C     8.14999962   8.71000004  57.61000061
C     7.78999996   8.14999962  56.36000061
C     8.71999931   8.13000011  55.34000015
C    10.03999901   8.60000038  55.61999893
C    14.23999977   9.15999985  56.45000076
C    14.92000008   8.65999985  55.31000137
C    16.29999924   8.48999977  55.20999908
C     6.38999987   7.60999966  56.22000122
H     5.76287127   8.17299080  55.52873230
H    10.88000107   7.76000023  53.85000229
H    11.94000053  10.01999950  58.09999847
H     9.51000023   9.68000031  58.81999969
H     7.35000038   8.85000038  58.34000015
H     8.60999966   7.48000050  54.47999954
H    16.79000092   8.14000034  54.29999924
H     6.01000023   7.59000015  57.25000000
H     6.54999971   6.61999989  55.77999878
S    13.69999981   5.73999977  50.79000092
C    11.06999969   5.21000004  51.62000275
C    12.43000031   5.12000036  51.84999847
C    12.97000027   4.61999989  53.08000183
C    12.07999992   4.07999992  53.99000168
C    10.67999935   4.09000015  53.76999664
C     9.80000019   3.51999998  54.72000122
C     8.43999958   3.40999985  54.48999786
C     7.90999985   4.13999987  53.39000320
C     8.73999977   4.71000004  52.44999695
C    10.15999985   4.74000025  52.58999634
C    14.37999916   4.92999983  53.23999786
C    14.91000080   5.52999973  52.06999969
C    16.25000000   5.88999987  52.11999893
C     6.42000008   4.15999985  53.15999985
H     6.07838202   4.70089483  52.27748489
H    10.67999935   5.71000004  50.73999786
H    12.48999977   3.63000011  54.88999939
H    10.24000072   3.26999998  55.68999863
H     7.82000017   2.84999990  55.18000031
H     8.40999985   5.18000031  51.52999878
H    16.70999908   6.30000019  51.22000122
H     6.15999985   3.09999990  53.09000015
H     5.92000008   4.51999998  54.06999969
S    17.64000130   4.63999987  55.61000061
C    20.29999924   5.17000008  54.93000031
C    18.96999931   5.26999998  54.61999893
C    18.48999977   5.80999947  53.37999725
C    19.36000061   6.40999985  52.49000168
C    20.73999786   6.37000036  52.81000137
C    21.63000107   6.63000011  51.72000122
C    22.98000145   6.44000006  51.90000153
C    23.48999977   5.80999947  53.06999969
C    22.63000107   5.50000000  54.09000015
C    21.21999931   5.68000031  53.96999741
C    17.05999947   5.59999990  53.22999954
C    16.46000099   4.94000006  54.33000183
C    15.11000061   4.57999992  54.38000107
C    24.97999954   5.71000004  53.30999756
H    25.20737267   5.73131609  54.37580490
H    20.58000183   4.67000008  55.84999847
H    18.98999977   6.61000013  51.49000168
H    21.32999802   6.93000031  50.72000122
H    23.67000198   6.63000011  51.09000397
H    23.09000015   5.25000000  55.04000092
H    14.70000076   4.05999994  55.24000168
H    25.43000031   6.52999973  52.72999573
H    25.26000023   4.71000004  52.95999908
