96

S    16.98999977   9.19000053  58.99000168
C    19.68000031   9.36999989  58.22999954
C    18.37000084   9.13999939  57.88000107
C    18.02000046   8.64999962  56.58000183
C    19.02000046   8.39999962  55.65999985
C    20.36999893   8.67999935  55.97000122
C    21.45000076   8.53999996  55.05000305
C    22.72999954   8.94999981  55.34000015
C    23.01000214   9.48999977  56.63000107
C    22.06000137   9.47000027  57.63000107
C    20.71000099   9.17000008  57.28000259
C    16.56999969   8.64000034  56.40999603
C    15.88999939   8.89000034  57.63000107
C    14.50000000   8.96000004  57.67000198
C    24.40999985   9.98999977  56.86000061
H    24.88632393   9.37148857  57.62069702
H    19.86999893   9.72000027  59.23999786
H    18.70000076   7.94000053  54.72999954
H    21.28000069   8.05000019  54.09999847
H    23.46999931   8.84000015  54.54999924
H    22.23999977   9.85999966  58.62999725
H    14.11999893   9.23999977  58.64999771
H    25.02000046   9.98000050  55.94999695
H    24.47999954  11.02000046  57.22999954
S    13.31999969   7.90000010  54.02000046
C    10.67000008   7.82000017  54.78000259
C    11.95000076   8.19000053  55.11000061
C    12.28999996   8.64000034  56.43000031
C    11.28000069   8.84000015  57.35000229
C     9.94999981   8.42000008  57.09000015
C     8.80999947   8.55000019  57.94000244
C     7.57000017   8.05000019  57.62000275
C     7.36000013   7.35000038  56.39999771
C     8.39999962   7.30000019  55.51000214
C     9.70000076   7.81000042  55.81999969
C    13.73999977   8.64999962  56.52999878
C    14.42999935   8.36999989  55.31999969
C    15.80999947   8.40999985  55.26000214
C     5.97000027   6.85999966  56.04999924
H     5.29141760   7.61715508  55.65713501
H    10.34000015   7.59000015  53.76999664
H    11.47999954   9.11000061  58.37999725
H     9.02000046   8.92000008  58.94000244
H     6.80000019   8.14000034  58.36999893
H     8.31999969   6.80000019  54.54999924
H    16.32999992   7.99000025  54.40000153
H     5.40000010   6.48000002  56.90999985
H     6.21999979   6.07999992  55.31999969
S    17.48999977   9.73999977  52.80000305
C    20.22000122   9.78999996  52.06999969
C    18.89999962   9.63000011  51.72999954
C    18.55999947   9.31999969  50.38000107
C    19.56999969   9.13999939  49.45000076
C    20.90999985   9.46000004  49.75999832
C    22.01000023   9.27999973  48.87000275
C    23.31999969   9.44999981  49.22999954
C    23.61999893   9.98000050  50.51000214
C    22.60999870  10.11999989  51.44000244
C    21.25999832   9.82999992  51.10000229
C    17.12000084   9.11999989  50.22999573
C    16.40999985   9.39999962  51.43000031
C    15.03000069   9.55000019  51.44000244
C    25.03000069  10.31999969  50.93999863
H    25.39273643   9.73677444  51.78638458
H    20.51000214  10.05000019  53.08000183
H    19.31999969   8.92000008  48.41999817
H    21.77999878   8.90999985  47.87000275
H    24.07999992   9.22000027  48.47999954
H    22.79000092  10.39000034  52.48000336
H    14.55999947   9.98000050  52.31999969
H    25.72000122  10.29000092  50.08999634
H    25.02000046  11.38000011  51.23000336
S    14.02999973   8.53999996  47.70999908
C    11.31999969   8.23999977  48.39000320
C    12.55000019   8.78000069  48.67000198
C    12.89000034   9.15999985  50.00999832
C    11.87999916   9.30999947  50.93999863
C    10.55999947   8.89000034  50.63000107
C     9.48000050   9.02999973  51.53999710
C     8.27000046   8.42000008  51.30000305
C     8.06999969   7.67000008  50.11000061
C     9.03999996   7.59999990  49.13999939
C    10.29999924   8.23000050  49.36999893
C    14.32000065   9.19999981  50.27999878
C    15.06000042   8.92000008  49.09999847
C    16.44000053   8.76000023  49.06000137
C     6.71000004   7.14999962  49.72000122
H     6.31921196   7.68289232  48.85316086
H    11.03999996   7.81000042  47.43000031
H    12.05000019   9.55000019  51.98999786
H     9.71000004   9.40999985  52.52999878
H     7.53999996   8.46000004  52.09999847
H     8.85999966   7.17999983  48.15000153
H    16.88999939   8.42000008  48.13000107
H     6.07999992   7.26999998  50.61000061
H     6.72999954   6.05999994  49.59999847
