96

S    16.40999985   9.77000046  58.50999832
C    19.15999985   9.89000034  57.84000015
C    17.86000061   9.56999969  57.50999832
C    17.54999924   8.88000011  56.29000092
C    18.55999947   8.59000015  55.38999939
C    19.88999939   8.96000004  55.65999985
C    20.90999985   8.93000031  54.65999985
C    22.19000053   9.31999969  54.99000168
C    22.47999954   9.84000015  56.27999878
C    21.50000000  10.06000042  57.21000290
C    20.20000076   9.55999947  56.93000031
C    16.11999893   8.69000053  56.10000229
C    15.38000011   9.06000042  57.25000000
C    14.01999950   8.76999950  57.35000229
C    23.85000038  10.40999985  56.60999680
H    24.34081459   9.81248856  57.37823105
H    19.34999847  10.46000004  58.74000168
H    18.31999969   8.23000050  54.38999939
H    20.58000183   8.64000034  53.67000198
H    22.92000008   9.17000008  54.19000244
H    21.51000023  10.73999977  58.06000137
H    13.52000046   8.82000065  58.30999756
H    24.46000099  10.40999985  55.70000076
H    23.78000069  11.39999962  57.08000183
S    13.05999947   7.73999977  53.61000061
C    10.38000011   7.40000010  54.23999786
C    11.64000034   7.73000002  54.68000031
C    11.92999935   8.18000031  56.00999832
C    10.86999989   8.42000008  56.86000061
C     9.68000031   7.69999981  56.58000183
C     8.67000008   7.68000031  57.58999634
C     7.42999983   7.17999983  57.29000092
C     7.07999992   6.78999996  55.97000122
C     8.05999947   6.78999996  55.00999832
C     9.38000011   7.26999998  55.24000168
C    13.35999966   8.36000061  56.18999863
C    14.09000015   8.14000034  54.99000168
C    15.47999954   8.23999977  54.93999863
C     5.63000011   6.52999973  55.59999847
H     5.32991123   7.22306252  54.81405258
H    10.25000000   6.98000002  53.25000000
H    11.07999992   8.76999950  57.87000275
H     9.00000000   8.07999992  58.54000092
H     6.57999992   7.09999990  57.95999908
H     7.90999985   6.56000042  53.95999908
H    16.01000023   7.86999989  54.06999969
H     5.03999996   6.75000000  56.50000000
H     5.53999996   5.49000025  55.26000214
S    17.23999977  10.18000031  52.81000137
C    19.92000008  10.57000065  52.09999847
C    18.71000099   9.98000050  51.81999969
C    18.42000008   9.27999973  50.61000061
C    19.42000008   9.13000011  49.66999817
C    20.72000122   9.61999989  49.94999695
C    21.84000015   9.30999947  49.13000107
C    23.12000084   9.59000015  49.56999969
C    23.38000107  10.34000015  50.73999786
C    22.30999947  10.64000034  51.56000137
C    20.97999954  10.25000000  51.20999908
C    17.00000000   9.01000023  50.47000122
C    16.20000076   9.50000000  51.53999710
C    14.80999947   9.47000027  51.52000046
C    24.77000046  10.82999992  51.06999969
H    25.12614822  10.19605732  51.88201904
H    20.15999985  11.16000080  52.97999954
H    19.09000015   8.78000069  48.69999695
H    21.54999924   8.82000065  48.20999908
H    23.94000053   9.30000019  48.92000198
H    22.50999832  11.05000019  52.54000092
H    14.39000034   9.61999989  52.50999832
H    25.43999863  10.59000015  50.22999573
H    24.54999924  11.87999916  51.31000137
S    13.94000053   8.36999989  47.84000015
C    11.14999962   8.38999939  48.29000092
C    12.43000031   8.67999935  48.72000122
C    12.75000000   9.13000011  50.04000092
C    11.65999985   9.34000015  50.84999847
C    10.34000015   9.02000046  50.44000244
C     9.28999996   9.02999973  51.39999771
C     8.02999973   8.55000019  51.12999725
C     7.73000002   8.01999950  49.85000229
C     8.71999931   7.96999979  48.88999939
C    10.03000069   8.46000004  49.15000153
C    14.18000031   9.23999977  50.28999710
C    14.98999977   8.89999962  49.16999817
C    16.36000061   8.67999935  49.27000046
C     6.38999987   7.37999964  49.59000015
H     6.01357412   7.82034731  48.66669083
H    10.98000050   8.10999966  47.25000000
H    11.82000065   9.52999973  51.90999985
H     9.52999973   9.36999989  52.41000366
H     7.37999964   8.30000019  51.95999908
H     8.59000015   7.50999975  47.91999817
H    16.92000008   8.47000027  48.36999893
H     5.75999975   7.65999985  50.44000244
H     6.48999977   6.28999996  49.64000320
