96

S    16.75000000   9.75000000  58.85000229
C    19.47999954  10.03999901  58.18999863
C    18.22000122   9.59000015  57.87000275
C    17.94000053   9.04999924  56.56999969
C    18.97999954   8.90999985  55.66999817
C    20.29999924   9.22999954  56.04999924
C    21.34000015   9.13999939  55.07999802
C    22.57999802   9.64999962  55.37000275
C    22.85000038  10.24000072  56.63999939
C    21.86000061  10.42000008  57.57999802
C    20.55999947   9.92000008  57.29000092
C    16.53000069   8.82000065  56.32999802
C    15.77999973   9.13999939  57.49000168
C    14.39000034   9.21000004  57.49000168
C    24.20999908  10.80000019  56.97000122
H    24.79384613  10.04527187  57.49688721
H    19.63999939  10.48999977  59.16999817
H    18.77000046   8.48999977  54.68000031
H    21.01000023   8.73999977  54.12000275
H    23.34000015   9.53999996  54.61000061
H    22.19000053  10.90000057  58.50000000
H    13.83999920   9.75000000  58.25000000
H    24.84999847  11.00999928  56.11000061
H    23.98999977  11.78999996  57.39999771
S    13.45999908   7.88999987  53.86000061
C    10.72000027   7.92999983  54.43000031
C    12.01000023   8.19999981  54.82999802
C    12.25999928   8.60999966  56.18000031
C    11.26000023   8.82000065  57.11999893
C     9.94999981   8.43999958  56.73999786
C     8.90999985   8.47000027  57.70999908
C     7.65999985   8.07999992  57.29000092
C     7.39000034   7.59000015  55.97999954
C     8.38000011   7.57000017  55.02999878
C     9.68999958   7.99000025  55.40000153
C    13.69999981   8.75000000  56.36000061
C    14.47000027   8.43000031  55.21999741
C    15.85000038   8.38999939  55.18000031
C     5.98999977   7.11999989  55.63999939
H     5.59173393   7.58227253  54.73678970
H    10.51000023   7.57999992  53.41999817
H    11.47999954   9.09000015  58.15000153
H     9.15000057   8.75000000  58.73000336
H     6.80000019   8.27000046  57.93000031
H     8.18000031   7.18999958  54.02999878
H    16.34000015   8.27000046  54.20999908
H     5.35000038   7.26000023  56.51000214
H     6.09000015   6.05000019  55.38000107
S    17.40999985  10.13000011  52.61000061
C    20.13000107  10.03000069  52.11999893
C    18.86000061   9.76000023  51.66999817
C    18.56999969   9.19999981  50.38000107
C    19.65999985   8.89999962  49.59000015
C    20.95999908   9.39000034  49.86999893
C    22.04999924   9.39999962  48.95000076
C    23.32999992   9.77000046  49.27999878
C    23.55999947  10.17000008  50.61999893
C    22.55000114  10.13000011  51.55000305
C    21.21000099   9.81999969  51.22000122
C    17.12000084   9.11999989  50.22999573
C    16.31999969   9.59999943  51.31000137
C    14.93999958   9.64999962  51.38999939
C    24.93000031  10.73999977  50.90999985
H    25.42027283  10.19999027  51.72001266
H    20.28000069  10.47999954  53.09999847
H    19.51000023   8.36000061  48.66000366
H    21.87000084   8.92000008  47.97999954
H    24.06999969   9.80000019  48.48999786
H    22.70999908  10.59999943  52.51999664
H    14.52000046   9.73999977  52.38999939
H    25.52000046  10.62000084  49.99000168
H    24.84999847  11.80999947  51.13999939
S    13.90999985   8.00000000  48.00000000
C    11.16000080   8.00000000  48.54000092
C    12.43000031   8.42000008  48.88000107
C    12.75000000   8.97000027  50.15999603
C    11.72000027   9.13000011  51.06999969
C    10.38000011   8.88000011  50.68999863
C     9.39999962   9.09000015  51.70000076
C     8.11999989   8.69000053  51.40999603
C     7.82000017   8.05999947  50.17000198
C     8.73999977   7.86000013  49.15999985
C    10.08999920   8.21000004  49.45000076
C    14.19000053   9.17000008  50.31000137
C    14.98000050   8.65999985  49.25000000
C    16.36000061   8.53999996  49.20999908
C     6.38999987   7.65999985  49.89999771
H     5.87740850   8.11563683  49.05279922
H    11.02000046   7.42999983  47.63000107
H    11.89000034   9.27999973  52.12999725
H     9.81000042   9.36999989  52.67000198
H     7.42000008   8.65999985  52.23999786
H     8.51000023   7.34000015  48.22999954
H    16.97999954   8.10000038  48.43000031
H     5.75000000   7.82000017  50.77999878
H     6.53999996   6.60000038  49.66999817
