96

S    16.28000069   9.32999992  58.89999771
C    18.97999954   9.19999981  58.30999756
C    17.70000076   8.90999985  57.91999817
C    17.34000015   8.50000000  56.59000015
C    18.34000015   8.36000061  55.63999939
C    19.65999985   8.65999985  56.03000259
C    20.65000153   8.55000019  55.00999832
C    21.98999786   8.71999931  55.27999878
C    22.32000160   9.26999950  56.55000305
C    21.38999939   9.44000053  57.54000092
C    20.02000046   9.07999992  57.36000061
C    15.90999985   8.67999935  56.37000275
C    15.19999981   9.17000008  57.50000000
C    13.82999992   9.42000008  57.52999878
C    23.77000046   9.65999985  56.70000076
H    24.24674988   9.23305988  57.58234406
H    19.17000008   9.65999985  59.27999878
H    18.19000053   8.00000000  54.62999725
H    20.29999924   8.34000015  54.00000000
H    22.62000084   8.80000019  54.40000153
H    21.63000107   9.82999992  58.53000259
H    13.21000004   9.50000000  58.40999985
H    24.38999939   9.55000019  55.79999924
H    23.64000130  10.75000000  56.75000000
S    12.74000072   8.42000008  53.81999969
C    10.07999992   8.00000000  54.68999863
C    11.35000038   8.47999954  54.92000198
C    11.71000004   8.92000008  56.23000336
C    10.73999977   8.94999981  57.21000290
C     9.38000011   8.60000038  57.04999924
C     8.34000015   8.48999977  58.01000214
C     7.09000015   8.03999996  57.65999603
C     6.85999966   7.50000000  56.37000275
C     7.86999989   7.48000050  55.43000031
C     9.11000061   8.10000038  55.72999954
C    13.14000034   9.15999985  56.33999634
C    13.83999920   8.82000065  55.14999771
C    15.22999954   8.67999935  55.14999771
C     5.46000004   7.18999958  55.89000320
H     5.19561958   7.89739656  55.10400391
H     9.71000004   7.46000004  53.81999969
H    10.95000076   9.21000004  58.25000000
H     8.53999996   8.86999989  59.01000214
H     6.28999996   8.14000034  58.39000320
H     7.67000008   7.03000021  54.45999908
H    15.75000000   8.51000023  54.20999908
H     4.71000004   7.34000015  56.68000031
H     5.32000017   6.14000034  55.58000183
S    13.78999901   6.09000015  51.05999756
C    11.07999992   5.56999969  51.77999878
C    12.43000031   5.52999973  52.04999924
C    12.88000011   4.98000002  53.29999924
C    12.01000023   4.42999983  54.22000122
C    10.62999916   4.40000010  53.88999939
C     9.72999954   3.61999989  54.65999985
C     8.38999939   3.56999993  54.34000015
C     7.85000038   4.26000023  53.22999954
C     8.75000000   4.86999989  52.37999725
C    10.14000034   4.96000004  52.65999603
C    14.32999992   5.07000017  53.47999954
C    14.93999958   5.55000019  52.29000092
C    16.28999901   5.88000011  52.25000000
C     6.37000036   4.48999977  53.04000092
H     6.04245567   4.49712038  52.00040436
H    10.71000004   5.91000032  50.81999969
H    12.39999962   3.75999975  54.97000122
H    10.18000031   3.17999983  55.54999924
H     7.68000031   3.15000010  55.05000305
H     8.46000004   5.29999971  51.42000198
H    16.69000053   6.19999981  51.29000092
H     5.71000004   3.79999995  53.59000397
H     6.19999981   5.47999954  53.47000122
S    17.70000076   4.56999969  55.72999954
C    20.35000038   4.80999994  54.89999771
C    19.01000023   4.97000027  54.61000061
C    18.54999924   5.56999969  53.39000320
C    19.47000122   6.06999969  52.49000168
C    20.86000061   5.91000032  52.71999741
C    21.77000046   6.54999971  51.84000015
C    23.11000061   6.39999962  52.14000320
C    23.57999992   5.78000021  53.33000183
C    22.67999840   5.18000031  54.16999817
C    21.28000069   5.23999977  53.93000031
C    17.09000015   5.58000040  53.36000061
C    16.48999977   5.09999990  54.54000092
C    15.11999989   4.85000038  54.61000061
C    25.03999901   6.00000000  53.67000198
H    25.33822823   5.50294971  54.59309387
H    20.72999954   4.36999989  55.81999969
H    19.15999985   6.48999977  51.53999710
H    21.25000000   7.00999975  51.00000000
H    23.84000015   6.86999989  51.49000168
H    22.96999931   4.76000023  55.13000107
H    14.60999966   4.40000010  55.45999908
H    25.02000046   7.09000015  53.62999725
H    25.52000046   5.59999990  52.77000046
