96

S    16.79999924   9.61000061  58.69999695
C    19.51000023   9.68000031  57.94000244
C    18.20000076   9.39000034  57.63000107
C    17.75000000   8.89000034  56.37000275
C    18.70000076   8.59000015  55.41999817
C    20.06999969   8.80999947  55.68999863
C    21.14999962   8.61999989  54.79000092
C    22.43999863   9.02000046  55.02999878
C    22.85000038   9.44999981  56.32999802
C    21.84000015   9.61999989  57.25000000
C    20.48000145   9.28999996  56.98999786
C    16.29999924   8.82000065  56.25999832
C    15.62000084   9.35999966  57.38999939
C    14.25000000   9.59999943  57.32999802
C    24.30000114   9.77999973  56.58000183
H    24.77076149   8.91693974  57.05075836
H    19.78000069  10.26999950  58.81000137
H    18.38000107   8.15999985  54.47000122
H    20.85000038   8.19000053  53.82999802
H    23.15999985   8.92000008  54.22000122
H    22.09000015  10.05000019  58.22000122
H    13.73999977   9.72999954  58.27999878
H    24.82000160  10.10000038  55.68000031
H    24.34999847  10.62999916  57.28000259
S    13.19000053   7.95000029  53.80000305
C    10.51000023   8.14999962  54.43999863
C    11.80999947   8.48999977  54.77000427
C    12.10000038   9.10000038  56.03000259
C    11.10999966   9.21000004  56.97999954
C     9.75000000   8.97999954  56.63999939
C     8.69000053   8.97000027  57.58999634
C     7.39000034   8.76000023  57.18999863
C     7.07000017   8.25000000  55.90999985
C     8.10999966   8.10999966  55.00999832
C     9.46000004   8.40999985  55.34999847
C    13.53999996   9.15000057  56.20999908
C    14.22000027   8.50000000  55.14999771
C    15.59999943   8.32999992  55.14999771
C     5.65999985   7.76999998  55.63999939
H     5.31748295   8.26950455  54.73375702
H    10.34000015   7.50999975  53.57999802
H    11.33999920   9.44999981  58.02000046
H     8.85999966   9.31999969  58.61000061
H     6.57999992   9.02000046  57.85999680
H     7.97999954   7.50999975  54.12000275
H    16.11999893   7.99000025  54.27000046
H     4.92000008   8.05000019  56.39999771
H     5.75000000   6.69000053  55.48999786
S    13.89000034   5.79999971  50.97000122
C    11.21000099   5.33999968  51.40999603
C    12.50000000   5.14999962  51.84999847
C    12.84000015   4.55000019  53.09999847
C    11.78999996   4.02999973  53.82999802
C    10.44000053   4.18000031  53.41999817
C     9.35000038   3.93000007  54.29999924
C     8.05999947   4.25000000  53.95000076
C     7.76000023   4.78999996  52.68000031
C     8.78999996   5.19000006  51.86000061
C    10.13000011   4.85000038  52.18999863
C    14.23999977   4.75000000  53.46000290
C    14.91000080   5.33999968  52.35000229
C    16.26000023   5.64000034  52.27000427
C     6.34999990   5.21000004  52.31999969
H     5.99358559   4.77517414  51.38619232
H    10.98999977   5.97000027  50.54000092
H    12.09000015   3.60000014  54.78000259
H     9.59999943   3.50000000  55.27000046
H     7.26000023   3.91000009  54.61000061
H     8.73000050   5.69999981  50.90000153
H    16.69999886   6.09000015  51.38999939
H     5.75000000   4.98000002  53.20999908
H     6.46000004   6.30000019  52.22999954
S    17.56999969   4.02999973  55.68999863
C    20.22999954   4.77999973  55.20999908
C    18.92000008   4.76999998  54.80999756
C    18.45999908   5.28999996  53.54999924
C    19.38999939   5.82999992  52.69000244
C    20.76999855   5.75999975  53.00000000
C    21.76000214   6.38999987  52.19999695
C    23.11000061   6.44000006  52.47000122
C    23.55999947   5.82000017  53.67000198
C    22.60000038   5.29999971  54.51000214
C    21.19999886   5.23999977  54.27000046
C    17.02999878   5.13999987  53.33000183
C    16.39999962   4.53000021  54.45000076
C    15.01999950   4.44000006  54.58000183
C    25.00999832   6.01000023  54.05000305
H    25.42358208   5.30405712  54.77020645
H    20.55999947   4.23999977  56.09000397
H    19.01000023   6.17000008  51.72999954
H    21.45000076   6.94999981  51.31999969
H    23.81000137   7.03999996  51.90999985
H    22.93999863   5.00000000  55.48999786
H    14.56999969   3.89999986  55.40999985
H    25.09000015   7.03000021  54.45000076
H    25.63999939   5.98999977  53.15000153
