96

S    16.69000053   9.77999973  58.53000259
C    19.45000076   9.77000046  57.90999985
C    18.15999985   9.39999962  57.61000061
C    17.81999969   8.67999935  56.42000198
C    18.86000061   8.19000053  55.65000153
C    20.19000053   8.64000034  55.84000015
C    21.14999962   8.36000061  54.81999969
C    22.44999886   8.71999931  55.08999634
C    22.80999947   9.48000050  56.23000336
C    21.84000015   9.85999966  57.12999725
C    20.46999931   9.48999977  56.97000122
C    16.39999962   8.38000011  56.24000168
C    15.67999935   9.03999996  57.27000427
C    14.29999924   9.19999981  57.19999695
C    24.23999977   9.85999966  56.51000214
H    24.60795212   9.03918457  57.12561035
H    19.72999954  10.22999954  58.86000061
H    18.63999939   7.55000019  54.79999924
H    20.88000107   7.92000008  53.87000275
H    23.21000099   8.46000004  54.36000061
H    22.20999908  10.53999996  57.88999939
H    13.82999992   9.64999962  58.06999969
H    24.79000092  10.06999969  55.59000015
H    24.18999863  10.80999947  57.04999924
S    13.21000004   7.37999964  53.89999771
C    10.42000008   7.46999979  54.56999969
C    11.73999977   7.79999971  54.79999924
C    12.13000107   8.43999958  56.03000259
C    11.16000080   8.76000023  56.97000122
C     9.77999973   8.53999996  56.77000046
C     8.69999981   8.89999962  57.63000107
C     7.40999985   8.50000000  57.38999939
C     7.07000017   7.73999977  56.24000168
C     8.09000015   7.57999992  55.34000015
C     9.48000050   7.78999996  55.58000183
C    13.55999947   8.64999962  56.14999771
C    14.32000065   8.03999996  55.12000275
C    15.70000076   7.90999985  55.13000107
C     5.64000034   7.32999992  55.97000122
H     5.14986420   7.84854889  55.14600372
H    10.15999985   6.98000002  53.63999939
H    11.44000053   9.19999981  57.91999817
H     8.85999966   9.39000034  58.57999802
H     6.61000013   8.93999958  58.00000000
H     7.82999992   7.17000008  54.36999893
H    16.17000008   7.63000011  54.19000244
H     4.98000002   7.46999979  56.84000015
H     5.59999990   6.23000050  55.89000320
S    17.42000008   9.81000042  52.97000122
C    20.10999870  10.21000004  52.25999832
C    18.85000038   9.77999973  51.91999817
C    18.53000069   9.30999947  50.59999847
C    19.52999878   9.23999977  49.65000153
C    20.82999992   9.70000076  49.95999908
C    21.87999916   9.63999939  49.00000000
C    23.12999916  10.14000034  49.27999878
C    23.38999939  10.64000034  50.58000183
C    22.44999886  10.59999943  51.59000015
C    21.14000130  10.13000011  51.29000092
C    17.09000015   9.19000053  50.40000153
C    16.36999893   9.38000011  51.59999847
C    14.98000050   9.50000000  51.63999939
C    24.80999947  11.00999928  50.93999863
H    25.20946503  10.27526665  51.63906479
H    20.22000122  10.57999992  53.27999878
H    19.44000053   8.71999931  48.69999695
H    21.68999863   9.13999939  48.04999924
H    23.90999985   9.96000004  48.54000092
H    22.67000008  11.03000069  52.56000137
H    14.42000008   9.61000061  52.56000137
H    25.35000038  11.10000038  49.99000168
H    24.77999878  12.01000023  51.38999939
S    13.89000034   8.52000046  47.95000076
C    11.16000080   8.46000004  48.69999695
C    12.46999931   8.76999950  48.99000168
C    12.82999992   9.21000004  50.30000305
C    11.87999916   9.36999989  51.29000092
C    10.53999996   8.97999954  51.05999756
C     9.46000004   9.19000053  51.97000122
C     8.14000034   8.85999966  51.75000000
C     7.86000013   8.31999969  50.45999908
C     8.84000015   8.21000004  49.50000000
C    10.19999981   8.52999973  49.73999786
C    14.27000046   9.34000015  50.44000244
C    14.98999977   8.89999962  49.29999924
C    16.38000107   8.88000011  49.23999786
C     6.48000002   7.90000010  50.04000092
H     6.00196457   8.56354141  49.31937790
H    10.90000057   8.07999992  47.70999908
H    12.10999966   9.77000046  52.28000259
H     9.77000046   9.40999985  52.98999786
H     7.42999983   8.89000034  52.56000137
H     8.57999992   7.97999954  48.46000290
H    16.98999977   8.71999931  48.36000061
H     5.79999971   7.92000008  50.90999985
H     6.53999996   6.83000040  49.79000092
