96

S    16.93000031   9.63000011  58.76999664
C    19.63999939   9.51000023  58.13000107
C    18.35000038   9.19999981  57.78999710
C    18.01000023   8.69000053  56.50000000
C    19.01000023   8.56999969  55.54999924
C    20.36000061   8.84000015  55.84999847
C    21.47000122   8.85000038  54.93999863
C    22.75000000   9.07999992  55.38000107
C    23.05999947   9.61999989  56.65999985
C    22.01000023   9.59000015  57.54000092
C    20.66999817   9.26000023  57.18999863
C    16.55999947   8.69999981  56.37000275
C    15.80999947   9.19999981  57.47000122
C    14.42999935   9.34000015  57.39999771
C    24.43000031  10.11000061  57.05999756
H    24.91568947   9.45288944  57.78139114
H    19.93000031   9.98999977  59.06999969
H    18.71999931   8.57999992  54.50000000
H    21.42999840   8.55000019  53.89999771
H    23.48999977   9.04999924  54.59000015
H    22.18000031   9.71000004  58.61000061
H    13.88000011   9.89000034  58.15999985
H    25.03999901  10.26999950  56.16000366
H    24.21999931  11.11999989  57.43999863
S    13.40000057   7.86999989  53.85000229
C    10.69000053   7.82000017  54.41999817
C    11.95000076   8.19999981  54.80999756
C    12.30999947   8.76999950  56.07999802
C    11.30000019   8.97999954  57.00000000
C     9.98000050   8.59000015  56.65999985
C     8.97999954   8.73000050  57.65999603
C     7.67000008   8.43999958  57.36999893
C     7.32999992   8.01000023  56.05999756
C     8.28999996   7.76000023  55.10000229
C     9.65999985   8.01999950  55.37000275
C    13.73999977   8.88000011  56.27999878
C    14.47000027   8.47000027  55.13000107
C    15.85999966   8.38999939  55.20000076
C     5.89999962   7.63000011  55.77999878
H     5.49483728   8.16310883  54.91991806
H    10.42000008   7.46999979  53.41999817
H    11.44999981   9.23999977  58.04999924
H     9.21000004   9.25000000  58.57999802
H     6.89000034   8.71000004  58.06999969
H     8.01999950   7.17000008  54.22999954
H    16.42000008   8.06999969  54.33000183
H     5.32000017   7.86999989  56.66999817
H     5.92999983   6.53999996  55.65999985
S    17.46000099  10.11999989  52.56000137
C    20.13999939  10.13000011  51.86999893
C    18.84000015   9.96999931  51.45000076
C    18.48999977   9.52000046  50.13000107
C    19.56999969   9.42000008  49.27000046
C    20.92000008   9.72999954  49.55999756
C    21.94999886   9.71000004  48.57999802
C    23.21000099  10.01999950  49.03999710
C    23.52999878  10.36000061  50.38000107
C    22.52000046  10.47000027  51.30000305
C    21.18999863  10.13000011  50.90999985
C    17.05000114   9.40999985  49.95999908
C    16.40999985   9.77999973  51.17000198
C    15.01999950   9.81999969  51.18000031
C    24.94999886  10.73999977  50.72000122
H    25.33365822  10.12898827  51.53705215
H    20.39999962  10.34000015  52.90000153
H    19.23999977   9.28999996  48.23999786
H    21.73000145   9.27999973  47.60000229
H    23.95999908   9.90999985  48.27000046
H    22.53999901  10.64000034  52.36999893
H    14.52999973   9.92000008  52.15000153
H    25.59000015  10.54999924  49.84000397
H    24.96000099  11.77999973  51.04000092
S    13.78999901   8.64000034  47.56999969
C    11.10000038   8.93999958  48.25000000
C    12.42000008   9.11000061  48.59000397
C    12.79000092   9.44000053  49.93000031
C    11.84000015   9.53999996  50.93000031
C    10.47999954   9.30000019  50.63999939
C     9.44000053   9.35000038  51.62000275
C     8.17000008   9.01000023  51.20999908
C     7.79999971   8.73000050  49.86999893
C     8.78999996   8.64999962  48.92000198
C    10.11999989   9.00000000  49.27999878
C    14.23999977   9.48999977  50.06999969
C    14.91000080   9.04999924  48.88999939
C    16.29999924   9.02999973  48.83999634
C     6.42000008   8.21000004  49.52999878
H     6.04256248   8.68713760  48.62557602
H    10.88000107   8.59000015  47.23999786
H    11.96000004   9.76000023  51.98999786
H     9.67000008   9.65999985  52.63000107
H     7.42999983   8.93999958  52.00000000
H     8.60000038   8.50000000  47.85999680
H    16.94000053   8.71999931  48.02999878
H     5.68000031   8.36000061  50.31999969
H     6.32000017   7.14999962  49.23999786
