96

S    16.84000015   9.75000000  59.00000000
C    19.55999947   9.75000000  58.25000000
C    18.23999977   9.44999981  57.95999908
C    17.88999939   9.02999973  56.63999939
C    18.86999893   8.80999947  55.68999863
C    20.22000122   9.11999989  55.96000290
C    21.28999901   8.96000004  55.02999878
C    22.60999870   9.19999981  55.33000183
C    22.92000008   9.77000046  56.59000015
C    21.94000053   9.88000011  57.55000305
C    20.58000183   9.57999992  57.28000259
C    16.44000053   8.97999954  56.47999573
C    15.75000000   9.42000008  57.63000107
C    14.35999966   9.40999985  57.68000031
C    24.30000114  10.29000092  56.93000031
H    24.89067841   9.62815762  57.56337738
H    19.88999939  10.11999989  59.20999908
H    18.64999962   8.40999985  54.71000290
H    21.07000160   8.63000011  54.02999878
H    23.36999893   9.06999969  54.56999969
H    22.07999992  10.31999969  58.54000092
H    13.86000061   9.63999939  58.61000061
H    24.96000099  10.44999981  56.06999969
H    24.04999924  11.30000019  57.28000259
S    13.27000046   8.05999947  54.09999847
C    10.55999947   8.23000050  54.61999893
C    11.84000015   8.23999977  55.13000107
C    12.22000027   8.63000011  56.45000076
C    11.19999981   8.89000034  57.35000229
C     9.85999966   8.71999931  56.93000031
C     8.76000023   8.89000034  57.81000137
C     7.44999981   8.63000011  57.48000336
C     7.18999958   8.30999947  56.11999893
C     8.18000031   8.05999947  55.20000076
C     9.52999973   8.30999947  55.59000015
C    13.64999962   8.89999962  56.59000015
C    14.35999966   8.53999996  55.41999817
C    15.75000000   8.57999992  55.33000183
C     5.75000000   7.96999979  55.77999878
H     5.37885141   8.44821072  54.87354279
H    10.34999943   7.96999979  53.57999802
H    11.35000038   9.31999969  58.34000015
H     9.02999973   9.13000011  58.83999634
H     6.63999987   8.67000008  58.18999863
H     8.01000023   7.67000008  54.20000076
H    16.32999992   8.30000019  54.45999908
H     5.03999996   8.07999992  56.60999680
H     5.86000013   6.91999960  55.47000122
S    13.76999950   6.26999950  50.90999985
C    11.16000080   5.75000000  51.63999939
C    12.48999977   5.45000029  51.81999969
C    13.02000046   4.69999981  52.91999817
C    12.06999969   4.07999992  53.72000122
C    10.70000076   4.09999990  53.36999893
C     9.76000023   3.49000001  54.25000000
C     8.42000008   3.77999997  54.12000275
C     7.90999985   4.63999987  53.11000061
C     8.80999947   5.26999998  52.28000259
C    10.19999981   4.97000027  52.34000397
C    14.42000008   5.00999975  53.15000153
C    14.96999931   5.84999990  52.15000153
C    16.31000137   6.19999981  52.16999817
C     6.47000027   5.07999992  53.06999969
H     6.00152159   4.65411091  52.18273163
H    10.82999992   6.52999973  50.96000290
H    12.38000011   3.61000013  54.65000153
H    10.26999950   3.07999992  55.12000275
H     7.73999977   3.45999980  54.88999939
H     8.56999969   6.07999992  51.59999847
H    16.79999924   6.84999990  51.45000076
H     5.88000011   4.97000027  53.99000168
H     6.42000008   6.17000008  52.95000076
S    17.64999962   4.69999981  55.56999969
C    20.32999992   5.26999998  54.75000000
C    18.96999931   5.38000011  54.58000183
C    18.57999992   5.93999958  53.33000183
C    19.45999908   6.51999998  52.43999863
C    20.86000061   6.47000027  52.65999603
C    21.81999969   6.90999985  51.70999908
C    23.15999985   6.72999954  51.97999954
C    23.59000015   6.15000010  53.20000076
C    22.67999840   5.73000002  54.13999939
C    21.28999901   5.82999992  53.88000107
C    17.14999962   5.68000031  53.15999985
C    16.54000092   4.94000006  54.20999908
C    15.21999931   4.51000023  54.19000244
C    25.10000038   6.01999998  53.31999969
H    25.33569336   6.02714205  54.38418961
H    20.69000053   4.69999981  55.61000061
H    19.00000000   6.97000027  51.56000137
H    21.53000069   7.53000021  50.86999893
H    23.95999908   6.91999960  51.27999878
H    23.02999878   5.07999992  54.94999695
H    14.89999962   3.84999990  54.99000168
H    25.56999969   6.90999985  52.88999939
H    25.55999947   5.23000002  52.72999573
