96

S    16.67000008   9.13000011  58.89999771
C    19.37000084   9.11000061  58.18000031
C    18.05999947   8.90999985  57.81999969
C    17.75000000   8.55000019  56.46999741
C    18.75000000   8.38000011  55.52999878
C    20.13000107   8.43999958  55.86999893
C    21.18999863   8.31999969  54.92000198
C    22.44999886   8.75000000  55.25000000
C    22.73999977   9.23999977  56.55000305
C    21.70000076   9.42000008  57.43000031
C    20.38000107   8.94999981  57.18999863
C    16.31000137   8.38999939  56.32999802
C    15.62999916   8.89000034  57.47000122
C    14.25000000   9.00000000  57.50999832
C    24.18999863   9.53999996  56.81999969
H    24.59386635   9.03693771  57.69858932
H    19.65999985   9.55999947  59.13000107
H    18.57999992   8.23999977  54.47000122
H    21.02999878   7.97999954  53.89999771
H    23.25000000   8.63000011  54.52000046
H    21.93000031   9.82999992  58.40999985
H    13.68000031   9.13000011  58.41999817
H    24.89000130   9.22000027  56.03000259
H    24.20999908  10.62999916  56.93999863
S    13.12999916   7.30999994  54.03999710
C    10.44999981   7.53000021  54.64000320
C    11.73999977   7.86999989  54.99000168
C    12.13000107   8.38999939  56.25999832
C    11.10000038   8.69999981  57.11999893
C     9.73999977   8.52000046  56.75000000
C     8.65999985   8.69000053  57.67000198
C     7.35000038   8.38000011  57.37999725
C     7.03000021   7.69999981  56.18000031
C     8.05999947   7.40999985  55.30000305
C     9.39000034   7.86000013  55.52000046
C    13.57999992   8.55000019  56.36000061
C    14.23999977   8.00000000  55.24000168
C    15.62000084   7.78999996  55.27999878
C     5.56999969   7.46999979  55.86000061
H     5.16444921   8.07476807  55.04890060
H    10.17000008   6.90999985  53.79000092
H    11.33999920   9.06999969  58.11000061
H     8.86999989   8.93000031  58.69999695
H     6.61000013   8.73000050  58.09999847
H     7.96000004   6.84999990  54.38000107
H    16.10000038   7.26999998  54.45000076
H     5.07000017   7.50999975  56.83000183
H     5.51000023   6.38999987  55.68000031
S    13.73999977   5.36000013  51.14999771
C    11.11999989   4.69000006  51.77999878
C    12.46000099   4.56999969  52.09000015
C    13.01000023   3.93000007  53.25000000
C    12.15000057   3.28999996  54.12000275
C    10.76000023   3.40999985  53.88999939
C     9.88000011   3.09999990  54.95999908
C     8.52999973   3.30000019  54.79999924
C     8.01000023   3.89999986  53.61999893
C     8.85999966   4.39000034  52.67000198
C    10.25000000   4.09000015  52.72999573
C    14.40000057   4.30999994  53.47000122
C    14.94999981   5.05999994  52.41000366
C    16.28999901   5.45000029  52.45999908
C     6.51999998   4.09000015  53.48999786
H     6.09403801   3.64983916  52.58837891
H    10.77000046   5.46000004  51.10000229
H    12.51999950   3.14000010  55.13000107
H    10.32999992   2.66999984  55.84999847
H     7.97999954   3.05000019  55.70999908
H     8.34999943   4.88999987  51.84999847
H    16.61999893   5.98000002  51.56999969
H     6.25999975   3.58999991  54.43000031
H     6.34000015   5.17000008  53.59000397
S    17.78000069   3.78999996  55.79000092
C    20.38000107   4.46999979  55.07999802
C    19.03000069   4.63999987  54.86000061
C    18.53000069   5.19999981  53.64999771
C    19.45999908   5.66999960  52.72999573
C    20.85000038   5.68000031  53.00000000
C    21.84999847   6.17999983  52.11999893
C    23.21000099   6.10000038  52.30999756
C    23.61000061   5.38000011  53.46000290
C    22.72999954   4.86000013  54.38000107
C    21.32999802   5.01999950  54.19000244
C    17.07999992   5.09000015  53.54999924
C    16.55999947   4.26999998  54.59000015
C    15.21000004   3.94000006  54.54999924
C    25.10000038   5.23999977  53.72000122
H    25.27790451   5.28269672  54.79453659
H    20.71000099   4.07999992  56.04000092
H    19.00000000   6.19999981  51.90999985
H    21.51000023   6.60000038  51.17000198
H    24.01000023   6.60000038  51.77999878
H    23.05000114   4.41000032  55.31999969
H    14.85999966   3.21000004  55.26000214
H    25.63999939   6.03999996  53.18999863
H    25.51000214   4.32000017  53.29999924
