96

S    16.48999977   9.51000023  58.60000229
C    19.15999985   9.53999996  58.02000046
C    17.89999962   9.25000000  57.55000305
C    17.53999901   8.76999950  56.25000000
C    18.55999947   8.75000000  55.31000137
C    19.88999939   8.93000031  55.76000214
C    20.95000076   8.84000015  54.80999756
C    22.22999954   9.23999977  55.12000275
C    22.50999832   9.55000019  56.47999573
C    21.54999924   9.68000031  57.44999695
C    20.20999908   9.30999947  57.11000061
C    16.10000038   8.59000015  56.11999893
C    15.39999962   9.02000046  57.28000259
C    14.01999950   9.11999989  57.35000229
C    23.92999840   9.78999996  56.93999863
H    24.28475761   9.26495934  57.82689285
H    19.31999969  10.01999950  58.99000168
H    18.27999878   8.50000000  54.29000092
H    20.59000015   8.56000042  53.82999802
H    22.98999977   9.26000023  54.34999847
H    21.65999985   9.92999935  58.50000000
H    13.48000050   9.46000004  58.22999954
H    24.56999969   9.72000027  56.04999924
H    24.01000023  10.86999989  57.14000320
S    12.98999977   7.88000011  53.63999939
C    10.29000092   7.53000021  54.41999817
C    11.57999992   7.92999983  54.72000122
C    11.92999935   8.43999958  56.00999832
C    10.92000008   8.53999996  56.95999908
C     9.55999947   8.34999943  56.63999939
C     8.47000027   8.56999969  57.52999878
C     7.17999983   8.39999962  57.09000015
C     6.84000015   7.78999996  55.84999847
C     7.90000010   7.55000019  55.00000000
C     9.25000000   7.78999996  55.34000015
C    13.35999966   8.63000011  56.22000122
C    14.02999973   8.26000023  55.01999664
C    15.42000008   8.23000050  54.94999695
C     5.42000008   7.35000038  55.59000015
H     5.05767107   7.75495625  54.64510345
H    10.00000000   7.11000013  53.46000290
H    11.10000038   8.76999950  58.00000000
H     8.64999962   8.82999992  58.56999969
H     6.46000004   8.50000000  57.88999939
H     7.69000006   7.14999962  54.00000000
H    16.01000023   7.96999979  54.08000183
H     4.86000013   7.67000008  56.46999741
H     5.40999985   6.25999975  55.43000031
S    13.42000008   5.51000023  51.00999832
C    10.92000008   4.42000008  51.49000168
C    12.23000050   4.51999998  51.88000107
C    12.71000004   4.15000010  53.18000031
C    11.78999996   3.70000005  54.10999680
C    10.40999985   3.67000008  53.81999969
C     9.42000008   3.42000008  54.81999969
C     8.09000015   3.51000023  54.50000000
C     7.64999962   3.73000002  53.16999817
C     8.60000038   4.07999992  52.22999954
C    10.00000000   3.98999977  52.48000336
C    14.09999943   4.50000000  53.41999817
C    14.57999992   5.26999998  52.32999802
C    15.85999966   5.79999971  52.35000229
C     6.19000006   3.58999991  52.81999969
H     5.93494225   3.92299199  51.81393814
H    10.67000008   4.94999981  50.56999969
H    12.09000015   3.54999995  55.13999939
H     9.76000023   3.17000008  55.81999969
H     7.40000010   3.23000002  55.28999710
H     8.28999996   4.39000034  51.24000168
H    16.28999901   6.44000006  51.59000015
H     5.98999977   2.51999998  52.80000305
H     5.40000010   4.00999975  53.46000290
S    17.43999863   4.25000000  55.68999863
C    20.05000114   4.97000027  55.05000305
C    18.71000099   5.13999987  54.81999969
C    18.15999985   5.65000010  53.60000229
C    19.00000000   6.12999964  52.61000061
C    20.38999939   6.01999998  52.84999847
C    21.28999901   6.58999968  51.90000153
C    22.63999939   6.75000000  52.09000015
C    23.15000153   6.05000019  53.22000122
C    22.34999847   5.53999996  54.22000122
C    20.94000053   5.46999979  54.06000137
C    16.72000122   5.53999996  53.43000031
C    16.22999954   4.74000025  54.48999786
C    14.93999958   4.23000002  54.51000214
C    24.64999962   6.11999989  53.34000015
H    24.94896126   6.39760637  54.35076904
H    20.34000015   4.51000023  55.98999786
H    18.60999870   6.60000038  51.70999908
H    20.89999962   6.94999981  50.94999695
H    23.23999786   7.23000002  51.32999802
H    22.72999954   5.07000017  55.12000275
H    14.65000057   3.45000005  55.20999908
H    25.13999939   6.70000029  52.55000305
H    25.00999832   5.10999966  53.11000061
