96

S    16.79999924   9.61000061  58.69999695
C    19.51000023   9.68000031  57.94000244
C    18.20000076   9.39000034  57.63000107
C    17.75000000   8.89000034  56.37000275
C    18.70000076   8.59000015  55.41999817
C    20.06999969   8.80999947  55.68999863
C    21.14999962   8.61999989  54.79000092
C    22.43999863   9.02000046  55.02999878
C    22.85000038   9.44999981  56.32999802
C    21.84000015   9.61999989  57.25000000
C    20.48000145   9.28999996  56.98999786
C    16.29999924   8.82000065  56.25999832
C    15.62000084   9.35999966  57.38999939
C    14.25000000   9.59999943  57.32999802
C    24.30000114   9.77999973  56.58000183
H    24.77076149   8.91693974  57.05075836
H    19.78000069  10.26999950  58.81000137
H    18.38000107   8.15999985  54.47000122
H    20.85000038   8.19000053  53.82999802
H    23.15999985   8.92000008  54.22000122
H    22.09000015  10.05000019  58.22000122
H    13.73999977   9.72999954  58.27999878
H    24.82000160  10.10000038  55.68000031
H    24.34999847  10.62999916  57.28000259
S    13.19000053   7.95000029  53.80000305
C    10.51000023   8.14999962  54.43999863
C    11.80999947   8.48999977  54.77000427
C    12.10000038   9.10000038  56.03000259
C    11.10999966   9.21000004  56.97999954
C     9.75000000   8.97999954  56.63999939
C     8.69000053   8.97000027  57.58999634
C     7.39000034   8.76000023  57.18999863
C     7.07000017   8.25000000  55.90999985
C     8.10999966   8.10999966  55.00999832
C     9.46000004   8.40999985  55.34999847
C    13.53999996   9.15000057  56.20999908
C    14.22000027   8.50000000  55.14999771
C    15.59999943   8.32999992  55.14999771
C     5.65999985   7.76999998  55.63999939
H     5.31748295   8.26950455  54.73375702
H    10.34000015   7.50999975  53.57999802
H    11.33999920   9.44999981  58.02000046
H     8.85999966   9.31999969  58.61000061
H     6.57999992   9.02000046  57.85999680
H     7.97999954   7.50999975  54.12000275
H    16.11999893   7.99000025  54.27000046
H     4.92000008   8.05000019  56.39999771
H     5.75000000   6.69000053  55.48999786
S    17.10000038  10.22999954  52.44999695
C    19.85999870  10.17000008  51.95000076
C    18.56999969   9.96000004  51.50000000
C    18.25000000   9.44999981  50.20000076
C    19.30999947   9.10000038  49.38000107
C    20.62999916   9.47000027  49.73999786
C    21.75000000   9.28999996  48.88999939
C    23.02000046   9.73999977  49.18000031
C    23.26999855  10.18000031  50.51000214
C    22.23999977  10.44999981  51.38000107
C    20.93000031  10.03000069  51.04000092
C    16.81999969   9.26999950  50.00999832
C    16.05999947   9.77999973  51.09000397
C    14.67000008   9.80000019  51.13999939
C    24.67000008  10.62000084  50.84999847
H    25.21825600  10.08598328  51.62610245
H    20.12000084  10.57000065  52.93000031
H    19.13999939   8.57999992  48.44999695
H    21.59000015   8.82999992  47.90999985
H    23.78000069   9.52999973  48.43000031
H    22.32000160  10.95999908  52.34000397
H    14.13000011  10.26000023  51.97000122
H    25.25000000  10.52999973  49.92000198
H    24.59000015  11.69999981  51.03000259
S    13.55999947   8.13000011  47.75000000
C    10.88000107   8.19999981  48.23999786
C    12.13000107   8.56000042  48.68999863
C    12.51000023   9.09000015  49.95999908
C    11.52999973   9.22000027  50.93000031
C    10.22999954   8.80999947  50.54999924
C     9.15999985   9.01000023  51.46999741
C     7.86000013   8.85000038  51.05999756
C     7.53000021   8.38999939  49.75999832
C     8.52000046   8.14999962  48.83999634
C     9.88000011   8.36999989  49.22999954
C    13.94999981   9.30999947  50.05000305
C    14.68000031   8.78999996  48.95000076
C    16.06999969   8.69999981  48.96999741
C     6.06999969   8.10999966  49.47000122
H     5.63728857   8.59946060  48.59748077
H    10.65000057   7.86999989  47.22999954
H    11.72999954   9.38000011  51.98999786
H     9.28999996   9.59999943  52.36999893
H     7.09999990   9.32999992  51.68000031
H     8.23000050   7.79999971  47.84999847
H    16.54000092   8.22000027  48.11999893
H     5.55000019   8.42000008  50.38999939
H     5.98999977   7.02000046  49.38000107
