96

S    16.97999954   9.19999981  58.68000031
C    19.68000031   9.23999977  57.97999954
C    18.37000084   9.09000015  57.58999634
C    18.01000023   8.82000065  56.23000336
C    18.98999977   8.76000023  55.26000214
C    20.32999992   9.07999992  55.59999847
C    21.38000107   9.15999985  54.64000320
C    22.67999840   9.44999981  54.99000168
C    22.95000076   9.86999989  56.31999969
C    21.97999954   9.80000019  57.29000092
C    20.65999985   9.36999989  56.97000122
C    16.56999969   8.61999989  56.07999802
C    15.90000057   8.85000038  57.30999756
C    14.52999973   8.78999996  57.50999832
C    24.34999847  10.34999943  56.65999985
H    24.86860466   9.61116409  57.27095795
H    19.88000107   9.51000023  59.02000046
H    18.73999977   8.53999996  54.22999954
H    21.24000168   8.88000011  53.60000229
H    23.45000076   9.39000034  54.22999954
H    22.20000076  10.01999950  58.33000183
H    14.04999924   8.86999989  58.48999786
H    24.84000015  10.67000008  55.73999786
H    24.28999901  11.31000042  57.18000031
S    13.22000027   7.83999968  53.89999771
C    10.62000084   7.31999969  54.86999893
C    11.85999966   7.86999989  55.05000305
C    12.30000019   8.32999992  56.32999802
C    11.39000034   8.34999943  57.36999893
C    10.06999969   7.86000013  57.18999863
C     9.06999969   8.00000000  58.18999863
C     7.77999973   7.59000015  57.95000076
C     7.40000010   7.03000021  56.70000076
C     8.36000061   6.80000019  55.73999786
C     9.68999958   7.26999998  55.93999863
C    13.73000050   8.60000038  56.38000107
C    14.37999916   8.34999943  55.13999939
C    15.76000023   8.36999989  54.97000122
C     5.93999958   6.76999998  56.39999771
H     5.63348293   7.21195507  55.45193481
H    10.31000042   7.00999975  53.87000275
H    11.72000027   8.69999981  58.34000015
H     9.35000038   8.34000015  59.19000244
H     6.94999981   7.73000002  58.62999725
H     8.09000015   6.48000002  54.72999954
H    16.10999870   8.25000000  53.95000076
H     5.38999987   7.31999969  57.16999817
H     5.60999966   5.73000002  56.47999573
S    13.71999931   5.79999971  51.12999725
C    11.16000080   5.00999975  51.90000153
C    12.51000023   5.00000000  52.15999985
C    13.07000065   4.28999996  53.27000046
C    12.23999977   3.70000005  54.20999908
C    10.85000038   3.74000025  53.99000168
C     9.92999935   3.22000003  54.94999695
C     8.56000042   3.24000001  54.79999924
C     8.05000019   3.74000025  53.57999802
C     8.89000034   4.36999989  52.69000244
C    10.29999924   4.44999981  52.87000275
C    14.50000000   4.53000021  53.27999878
C    15.03000069   5.33999968  52.23999786
C    16.32999992   5.80999947  52.16999817
C     6.57999992   3.49000001  53.33000183
H     6.09540081   4.08149576  52.55321503
H    10.80000019   5.53999996  51.02000427
H    12.63000011   3.26999998  55.13000107
H    10.27999973   2.63999987  55.79999924
H     7.99000025   2.66999984  55.52000046
H     8.45000076   4.67000008  51.73999786
H    16.67000008   6.52999973  51.44000244
H     6.46000004   2.40999985  53.18000031
H     5.98999977   3.71000004  54.22999954
S    17.95999908   4.11000013  55.44000244
C    20.48999977   4.92999983  54.61999893
C    19.13999939   4.85000038  54.34999847
C    18.64999962   5.53999996  53.20000076
C    19.45000076   6.21999979  52.29000092
C    20.84000015   6.14000034  52.49000168
C    21.87000084   6.70000029  51.68000031
C    23.22999954   6.51999998  51.86000061
C    23.65999985   5.88999987  53.06000137
C    22.75000000   5.44000053  53.99000168
C    21.37000084   5.51999998  53.68000031
C    17.20999908   5.32000017  53.15000153
C    16.72000122   4.57999992  54.26000214
C    15.39999962   4.13999987  54.27999878
C    25.10999870   6.17999983  53.36999893
H    25.52366257   5.83765841  54.31856918
H    21.02000046   4.65999985  55.54000092
H    18.97999954   6.65000010  51.40999603
H    21.57999992   7.28999996  50.80999756
H    24.00000000   7.00999975  51.27999878
H    23.05999947   4.86999989  54.86999893
H    15.14999962   3.44000006  55.07999802
H    25.22000122   7.26000023  53.20999908
H    25.82999992   5.82999992  52.62000275
