96

S    17.22999954   9.39999962  58.96999741
C    19.92000008   9.53999996  58.26000214
C    18.63999939   9.13000011  57.94000244
C    18.30999947   8.64000034  56.63999939
C    19.31999969   8.55000019  55.70000076
C    20.65000153   8.94999981  55.97999954
C    21.71999931   8.97999954  55.04000092
C    22.98000145   9.47000027  55.28999710
C    23.22000122  10.10000038  56.53999710
C    22.21999931  10.10000038  57.48000336
C    20.93000031   9.52000046  57.27000427
C    16.86000061   8.52999973  56.51000214
C    16.13000107   8.97999954  57.63999939
C    14.75000000   9.15999985  57.60000229
C    24.63999939  10.46000004  56.93999863
H    25.10157585   9.82089520  57.69272232
H    20.12000084  10.06000042  59.20000076
H    19.04000092   8.42000008  54.65999985
H    21.45999908   8.48999977  54.09999847
H    23.84000015   9.26999950  54.66999817
H    22.44999886  10.70000076  58.36000061
H    14.09999943   9.39000034  58.43999863
H    25.31999969  10.36000061  56.07999802
H    24.54999924  11.49000072  57.28000259
S    13.76999950   7.73999977  54.03999710
C    11.05000019   7.63000011  54.68000031
C    12.30999947   8.10999966  54.97000122
C    12.61000061   8.71000004  56.24000168
C    11.59999943   9.09000015  57.11000061
C    10.31000042   8.56999969  56.84999847
C     9.27999973   8.61999989  57.84000015
C     8.01999950   8.10000038  57.65999603
C     7.76999998   7.39000034  56.45000076
C     8.71999931   7.31999969  55.45999908
C    10.01000023   7.88000011  55.61999893
C    14.04000092   8.78000069  56.45000076
C    14.80999947   8.30999947  55.35999680
C    16.20000076   8.17000008  55.33000183
C     6.42000008   6.76999998  56.17000198
H     5.91564608   7.49456453  55.53067780
H    10.84000015   7.07999992  53.76999664
H    11.84000015   9.61000061  58.02999878
H     9.55000019   9.22999954  58.69999695
H     7.18999958   8.48999977  58.22999954
H     8.55000019   6.69000053  54.59999847
H    16.79000092   7.78999996  54.51000214
H     5.78999996   6.61999989  57.04999924
H     6.53999996   5.82999992  55.61999893
S    17.18000031   9.96000004  52.68000031
C    19.84000015   9.89999962  52.05999756
C    18.56999969   9.59000015  51.63999939
C    18.23999977   9.07999992  50.34000015
C    19.27000046   8.94999981  49.43000031
C    20.59999847   9.23999977  49.80999756
C    21.61999893   9.27999973  48.81999969
C    22.88000107   9.75000000  49.12000275
C    23.15999985  10.24000072  50.41999817
C    22.22999954  10.11000061  51.42000198
C    20.89999962   9.67000008  51.14999771
C    16.79000092   9.11000061  50.18000031
C    16.10999870   9.59999943  51.31999969
C    14.72000027   9.64999962  51.40999603
C    24.56000137  10.69000053  50.75000000
H    25.01505661   9.99319744  51.45391083
H    19.92000008  10.40999985  53.02000046
H    19.14999962   8.71000004  48.37999725
H    21.37000084   8.85999966  47.84000015
H    23.61000061   9.59000015  48.33000183
H    22.44999886  10.29999924  52.47000122
H    14.32000065   9.94000053  52.36999893
H    25.15999985  10.67999935  49.82999802
H    24.60000038  11.71000004  51.14999771
S    13.45000076   8.53999996  47.87000275
C    10.80000019   8.17000008  48.63999939
C    12.06999969   8.56999969  48.99000168
C    12.46999931   9.07999992  50.27000046
C    11.52999973   9.10000038  51.26999664
C    10.22999954   8.60999966  50.97999954
C     9.19999981   8.69000053  51.95999908
C     7.86000013   8.52000046  51.69000244
C     7.57999992   8.00000000  50.40000153
C     8.50000000   7.72000027  49.41999817
C     9.81999969   8.18000031  49.66999817
C    13.90999985   9.27999973  50.31999969
C    14.61999989   8.89000034  49.15000153
C    16.00000000   8.80999947  49.06000137
C     6.11000013   7.82000017  50.06000137
H     5.83897972   8.29785156  49.11856461
H    10.71000004   7.73000002  47.65999603
H    11.78999996   9.48999977  52.25000000
H     9.47000027   9.07999992  52.94000244
H     7.00000000   8.78999996  52.29999924
H     8.27999973   7.21000004  48.48999786
H    16.59000015   8.38999939  48.25000000
H     5.47999954   8.05000019  50.93000031
H     5.98000002   6.75000000  49.86000061
