96

S    17.11000061   9.63000011  58.82999802
C    19.77000046   9.89000034  58.08000183
C    18.48999977   9.55000019  57.71999741
C    18.13999939   9.04999924  56.42000198
C    19.11999893   8.96000004  55.45000076
C    20.43999863   9.35999966  55.79000092
C    21.50000000   9.10000038  54.87999725
C    22.81999969   9.25000000  55.25000000
C    23.13999939   9.86999989  56.47999573
C    22.17000008  10.01999950  57.44999695
C    20.81000137   9.78999996  57.11999893
C    16.70999908   8.82000065  56.31999969
C    16.02000046   9.15000057  57.50999832
C    14.63000107   9.11999989  57.62000275
C    24.60000038   9.96000004  56.86000061
H    24.82145119   9.32422066  57.71723175
H    20.03000069  10.22999954  59.08000183
H    19.02000046   8.47000027  54.47999954
H    21.37000084   8.57999992  53.93000031
H    23.62999916   8.96000004  54.58000183
H    22.47999954  10.10000038  58.48999786
H    14.23999977   9.46000004  58.56999969
H    25.15999985   9.61000061  55.97999954
H    24.86000061  11.00000000  57.09000015
S    13.53999996   7.97999954  53.95999908
C    10.81999969   7.88999987  54.59999847
C    12.09000015   8.27000046  54.93999863
C    12.43999958   8.69999981  56.25999832
C    11.38000011   8.80000019  57.14000320
C    10.03999901   8.47999954  56.79999924
C     8.98999977   8.38000011  57.76000214
C     7.69000006   8.11999989  57.38999939
C     7.40999985   7.65999985  56.07999802
C     8.40999985   7.55000019  55.13000107
C     9.71000004   7.99000025  55.48999786
C    13.86999989   8.73999977  56.50000000
C    14.59000015   8.36999989  55.34000015
C    15.95999908   8.52999973  55.17000198
C     6.01999998   7.14999962  55.75000000
H     5.55733299   7.60554886  54.87449265
H    10.67000008   7.51999950  53.59000397
H    11.46000004   8.89999962  58.22000122
H     9.28999996   8.52999973  58.79000092
H     6.89000034   8.32999992  58.09000015
H     8.22000027   7.13999987  54.13999939
H    16.43000031   8.40999985  54.20000076
H     5.50000000   7.23999977  56.70999908
H     6.00000000   6.06999969  55.52999878
S    17.43000031  10.21000004  52.69000244
C    20.15000153  10.13000011  52.18999863
C    18.89000130   9.75000000  51.79000092
C    18.56999969   9.10000038  50.54999924
C    19.57999992   8.90999985  49.62999725
C    20.86999893   9.38000011  49.98000336
C    21.83000183   9.34000015  48.92000198
C    23.12000084   9.70000076  49.22999954
C    23.50000000  10.29000092  50.45999908
C    22.50999832  10.43000031  51.39999771
C    21.21000099   9.86999989  51.27999878
C    17.13000107   8.93000031  50.37000275
C    16.39999962   9.44999981  51.46999741
C    15.01000023   9.48999977  51.52000046
C    24.93999863  10.59999943  50.79000092
H    25.38725853   9.90426254  51.49993515
H    20.30999947  10.82999992  53.00000000
H    19.42000008   8.53999996  48.61999893
H    21.44000053   8.93999958  47.98999786
H    23.87000084   9.59999943  48.44999695
H    22.77000046  10.92000008  52.34000397
H    14.50000000   9.89999962  52.38999939
H    25.52999878  10.65999985  49.86000061
H    24.89999962  11.56000042  51.31000137
S    13.86000061   8.09000015  47.95000076
C    11.14999962   8.17000008  48.57999802
C    12.43999958   8.47999954  48.94000244
C    12.84999943   9.00000000  50.20999908
C    11.82999992   9.34000015  51.07999802
C    10.48999977   9.02999973  50.79000092
C     9.44999981   9.23999977  51.73999786
C     8.17000008   8.85000038  51.45000076
C     7.85000038   8.19999981  50.21999741
C     8.78999996   8.00000000  49.23999786
C    10.13000011   8.38999939  49.54999924
C    14.28999996   9.11000061  50.38000107
C    14.96999931   8.64000034  49.22999954
C    16.36000061   8.56999969  49.26000214
C     6.38999987   7.88000011  49.97000122
H     5.97615194   8.33666039  49.07094955
H    10.86999989   7.79999971  47.60000229
H    12.13999939   9.85000038  51.98999786
H     9.64999962   9.75000000  52.68000031
H     7.46999979   8.84000015  52.28000259
H     8.60999966   7.50999975  48.29000092
H    16.88999939   8.36999989  48.34000015
H     5.75999975   8.02999973  50.86000061
H     6.34999990   6.78999996  49.89999771
