96

S    16.87999916   9.59999943  58.59000397
C    19.59000015   9.61000061  57.97000122
C    18.30000114   9.35000038  57.56000137
C    18.00000000   8.78000069  56.27999878
C    18.98999977   8.43999958  55.38999939
C    20.34000015   8.60000038  55.79999924
C    21.42999840   8.38999939  54.89999771
C    22.72999954   8.63000011  55.25000000
C    23.05000114   9.11000061  56.55000305
C    21.98999786   9.44000053  57.36000061
C    20.61000061   9.23999977  57.04999924
C    16.55999947   8.64999962  56.10000229
C    15.85000038   9.15999985  57.21000290
C    14.47999954   9.36999989  57.19999695
C    24.44999886   9.52999973  56.90999985
H    24.78349495   9.05459499  57.83242798
H    19.78000069   9.96999931  58.97999573
H    18.68999863   8.23000050  54.36999893
H    21.15999985   8.21000004  53.86000061
H    23.48999977   8.80999947  54.48999786
H    22.20000076   9.96000004  58.29999924
H    14.01000023   9.92999935  58.01000214
H    25.06000137   9.26999950  56.04000092
H    24.47000122  10.60999966  57.09999847
S    13.32999992   7.73999977  53.79000092
C    10.65000057   7.64999962  54.58000183
C    11.90999985   8.14000034  54.79000092
C    12.25999928   8.73000050  56.04999924
C    11.23999977   8.94999981  56.95999908
C     9.89000034   8.67999935  56.63999939
C     8.80999947   9.02999973  57.50000000
C     7.50000000   8.71999931  57.25000000
C     7.18999958   7.97999954  56.06999969
C     8.19999981   7.65999985  55.18000031
C     9.55999947   8.01000023  55.41999817
C    13.69999981   8.76999950  56.19999695
C    14.42000008   8.23999977  55.10000229
C    15.80000019   8.18000031  55.00999832
C     5.84999990   7.32999992  55.84999847
H     5.32213354   7.98626614  55.15806580
H    10.47999954   7.00000000  53.72000122
H    11.42000008   9.26999950  57.98999786
H     9.06000042   9.52000046  58.43999863
H     6.71000004   8.85999966  57.97999954
H     7.96999979   7.18999958  54.22999954
H    16.28999901   7.76000023  54.13999939
H     5.31000042   7.00999975  56.76000214
H     6.11999989   6.44000006  55.27000046
S    13.30999947   5.40999985  51.02000427
C    10.62000084   5.05999994  51.65999985
C    11.94000053   4.81999969  51.97999954
C    12.30999947   4.26999998  53.25000000
C    11.30000019   3.95000005  54.13999939
C     9.94000053   4.09999990  53.80000305
C     8.86999989   3.67000008  54.64000320
C     7.57999992   3.81000018  54.19000244
C     7.25000000   4.48999977  52.98999786
C     8.23000050   4.90999985  52.12999725
C     9.57999992   4.72000027  52.55000305
C    13.75000000   4.38000011  53.44999695
C    14.42000008   4.97000027  52.34000397
C    15.77000046   5.27999973  52.25000000
C     5.79999971   4.55999994  52.56000137
H     5.57951260   3.72783756  51.89142609
H    10.34000015   5.46999979  50.68999863
H    11.61999893   3.51999998  55.07999802
H     8.97999954   3.22000003  55.63000107
H     6.81999969   3.38999987  54.84000397
H     8.07999992   5.09999990  51.06999969
H    16.18000031   5.75000000  51.36000061
H     5.14999962   4.41000032  53.43999863
H     5.65000010   5.51999998  52.04000092
S    17.06999969   3.88000011  55.70000076
C    19.75000000   4.28000021  54.97000122
C    18.42000008   4.46999979  54.71000290
C    18.04000092   5.09000015  53.47000122
C    18.96000099   5.73999977  52.68000031
C    20.34000015   5.60999966  52.97000122
C    21.40000153   5.84999990  52.04999924
C    22.67999840   5.38999987  52.28000259
C    23.08000183   4.94999981  53.56999969
C    22.09000015   4.69999981  54.48999786
C    20.72000122   4.94999981  54.18000031
C    16.60000038   4.88999987  53.30999756
C    15.93000031   4.30000019  54.40999985
C    14.56999969   4.07000017  54.54000092
C    24.51999855   4.56999969  53.80000305
H    24.87014771   5.03448486  54.72182083
H    20.03000069   3.68999982  55.84999847
H    18.68999863   6.30000019  51.79000092
H    21.14999962   6.38999987  51.13999939
H    23.44000053   5.55000019  51.52000046
H    22.29999924   4.13999987  55.40000153
H    14.19999981   3.54999995  55.41999817
H    24.96999931   4.80999994  52.81999969
H    24.59000015   3.48000002  53.88999939
