96

S    16.62999916   9.42000008  59.00000000
C    19.36000061   9.25000000  58.47000122
C    18.06999969   8.94999981  58.09000015
C    17.71999931   8.50000000  56.77000046
C    18.78000069   8.28999996  55.90000153
C    20.10000038   8.64000034  56.27999878
C    21.18000031   8.46000004  55.37000275
C    22.49000168   8.82999992  55.58000183
C    22.79999924   9.28999996  56.88999939
C    21.80000114   9.55000019  57.80000305
C    20.45999908   9.11999989  57.58999634
C    16.28000069   8.42000008  56.60999680
C    15.54999924   9.02000046  57.65999603
C    14.17000008   9.18000031  57.60000229
C    24.23000145   9.48999977  57.32999802
H    24.69385529   8.69074154  57.90803528
H    19.40000153   9.70000076  59.45999908
H    18.68999863   7.76999998  54.94999695
H    20.85000038   8.10999966  54.40000153
H    23.31000137   8.69999981  54.88999939
H    21.91999817   9.96000004  58.80000305
H    13.78000069   9.46000004  58.56999969
H    24.80999947   9.75000000  56.44000244
H    24.43000031  10.36000061  57.97000122
S    13.12999916   7.36000013  54.23999786
C    10.38000011   7.73000002  54.65000153
C    11.67000008   8.00000000  55.02999878
C    12.01000023   8.64999962  56.25999832
C    10.98999977   8.96000004  57.14000320
C     9.67000008   8.53999996  56.84000015
C     8.69000053   8.47999954  57.87000275
C     7.42999983   7.97999954  57.65999603
C     7.00000000   7.65999985  56.35000229
C     7.97999954   7.51999950  55.38999939
C     9.31999969   7.94000053  55.58000183
C    13.43999958   8.69000053  56.50000000
C    14.19000053   8.00000000  55.51000214
C    15.57000065   7.82999992  55.54999924
C     5.61999989   7.18999958  55.94999695
H     5.22700119   7.74734354  55.09968948
H    10.08999920   7.14999962  53.77999878
H    11.25000000   9.19000053  58.16999817
H     9.01000023   8.73999977  58.88000107
H     6.76999998   7.73999977  58.48999786
H     7.83999968   6.94000006  54.47999954
H    16.15999985   7.39000034  54.75000000
H     5.01999950   7.40000010  56.84999847
H     5.55999994   6.10000038  55.86000061
S    17.19000053   9.76000023  53.25000000
C    19.89999962  10.06000042  52.54000092
C    18.60000038   9.78999996  52.18000031
C    18.30000114   9.27999973  50.87999725
C    19.32999992   9.09000015  49.98000336
C    20.63999939   9.53999996  50.25000000
C    21.65999985   9.42000008  49.27000046
C    22.95000076   9.59999943  49.72999954
C    23.29000092  10.10000038  51.00999832
C    22.29999924  10.22999954  51.97000122
C    20.95999908   9.90999985  51.59999847
C    16.87999916   9.02999973  50.68000031
C    16.15999985   9.31999969  51.86999893
C    14.77000046   9.38000011  51.86000061
C    24.72999954  10.29999924  51.42000198
H    25.04282379   9.50372124  52.09541321
H    20.17000008  10.29999924  53.55999756
H    19.10000038   8.56000042  49.05000305
H    21.37000084   8.85999966  48.39000320
H    23.74000168   9.19999981  49.10999680
H    22.53000069  10.57999992  52.97000122
H    14.22000027   9.77000046  52.70000076
H    25.43999863  10.21999931  50.58000183
H    24.86000061  11.30000019  51.84999847
S    13.80000019   7.96000004  48.25000000
C    11.06999969   8.25000000  48.64999771
C    12.34000015   8.36000061  49.16999817
C    12.64000034   8.94999981  50.44000244
C    11.56999969   9.19999981  51.27999878
C    10.25000000   8.89000034  50.86999893
C     9.10000038   8.97999954  51.70999908
C     7.79999971   8.73000050  51.31000137
C     7.60999966   8.36000061  49.95999908
C     8.64999962   8.30000019  49.05000305
C     9.98000050   8.45000076  49.52999878
C    14.06000042   9.13999939  50.66999817
C    14.78000069   8.60000038  49.58000183
C    16.17000008   8.57999992  49.55999756
C     6.28999996   7.82000017  49.47000122
H     5.66323185   8.53935909  48.94294739
H    11.03000069   7.90999985  47.62000275
H    11.77000046   9.47000027  52.30999756
H     9.30000019   9.52999973  52.62000275
H     7.04999971   8.78000069  52.09999847
H     8.39999962   7.86999989  48.08000183
H    16.72999954   8.23000050  48.68999863
H     5.73999977   7.48000050  50.35999680
H     6.56000042   6.90000010  48.94000244
