96

S    17.04000092   9.89000034  58.41999817
C    19.76000023   9.70000076  57.90999985
C    18.48999977   9.28999996  57.58999634
C    18.06999969   8.61999989  56.39999771
C    19.04999924   8.36000061  55.45000076
C    20.38999939   8.73000050  55.75000000
C    21.48999977   8.28999996  54.95999908
C    22.73999977   8.85999966  55.08999634
C    23.05999947   9.64999962  56.22000122
C    22.07999992   9.96000004  57.12999725
C    20.75000000   9.48000050  56.91999817
C    16.62999916   8.63000011  56.16000366
C    15.90999985   9.17000008  57.25999832
C    14.52000046   9.22999954  57.30999756
C    24.44999886  10.21000004  56.43000031
H    24.84115219   9.57704258  57.22653198
H    20.00000000  10.36999893  58.73000336
H    18.88000107   7.63999987  54.65999985
H    21.31000137   7.63999987  54.10999680
H    23.47999954   8.67000008  54.31999969
H    22.19000053  10.51000023  58.06999969
H    13.92000008   9.56999969  58.13999939
H    25.06000137  10.17000008  55.52000046
H    24.47999954  11.18999958  56.91999817
S    13.57999992   7.73999977  53.73000336
C    10.88999939   7.55999994  54.38999939
C    12.15999985   7.94000053  54.77000427
C    12.41000080   8.55000019  56.04000092
C    11.36999989   8.69000053  56.93999863
C    10.05000019   8.30000019  56.60999680
C     8.93999958   8.40999985  57.50999832
C     7.68000031   8.02999973  57.11999893
C     7.44000006   7.48000050  55.83000183
C     8.50000000   7.34000015  54.97000122
C     9.82999992   7.69999981  55.31999969
C    13.83999920   8.76000023  56.18000031
C    14.59000015   8.34999943  55.05000305
C    15.97000027   8.21000004  55.00000000
C     6.10000038   6.90000010  55.43000031
H     5.61622715   7.56163025  54.71145248
H    10.65000057   7.04999971  53.46000290
H    11.57999992   9.03999996  57.94000244
H     9.11000061   8.82999992  58.48999786
H     6.85999966   8.01999950  57.83000183
H     8.36000061   6.93000031  53.96999741
H    16.45000076   7.86999989  54.09000015
H     5.40000010   6.69000053  56.24000168
H     6.24000025   5.93999958  54.91000366
S    17.28000069  10.14000034  52.88000107
C    20.00000000  10.14999962  52.16999817
C    18.70000076   9.80000019  51.88000107
C    18.45000076   9.28999996  50.56999969
C    19.47999954   9.02999973  49.68000031
C    20.82999992   9.32999992  50.00000000
C    21.93000031   9.22999954  49.09999847
C    23.19999886   9.61999989  49.47000122
C    23.47999954  10.06000042  50.79000092
C    22.42000198  10.26000023  51.65000153
C    21.09000015   9.92999935  51.27999878
C    17.01000023   9.19000053  50.38999939
C    16.27000046   9.68999958  51.49000168
C    14.88000011   9.80000019  51.44000244
C    24.79000092  10.64000034  51.25999832
H    25.27979469   9.95145035  51.94854736
H    20.22000122  10.39999962  53.20000076
H    19.22000122   8.47000027  48.79000092
H    21.68000031   8.93000031  48.09000015
H    23.95000076   9.76000023  48.68999863
H    22.56000137  10.65000057  52.64999771
H    14.27000046  10.29999924  52.18000031
H    25.45999908  10.84000015  50.40999985
H    24.60000038  11.56999969  51.79999924
S    13.89000034   8.05000019  47.98999786
C    11.16000080   7.73999977  48.69999695
C    12.42000008   8.22000027  48.97999573
C    12.77999973   8.78999996  50.24000168
C    11.79999924   9.02999973  51.18999863
C    10.46000004   8.71999931  50.84999847
C     9.38000011   9.00000000  51.73999786
C     8.06999969   8.69000053  51.44000244
C     7.79999971   7.94000053  50.27000046
C     8.80000019   7.65999985  49.36000061
C    10.14000034   8.00000000  49.65000153
C    14.19000053   9.11000061  50.44000244
C    14.89999962   8.75000000  49.27000046
C    16.28999901   8.78000069  49.26000214
C     6.38000011   7.60999966  49.88999939
H     5.93848896   8.24378204  49.12091827
H    10.98999977   7.11000013  47.83000183
H    12.06999969   9.50000000  52.12999725
H     9.52000046   9.44999981  52.71999741
H     7.25000000   8.96000004  52.11000061
H     8.51000023   7.09999990  48.47000122
H    16.77000046   8.36000061  48.37999725
H     5.82000017   7.48000050  50.83000183
H     6.37000036   6.58999968  49.48999786
