96

S    16.64999962   9.75000000  58.57999802
C    19.34999847   9.85000038  57.85999680
C    18.06999969   9.47000027  57.54000092
C    17.72999954   8.85999966  56.29000092
C    18.73999977   8.67999935  55.37000275
C    20.06999969   9.09000015  55.63000107
C    21.11999893   8.78000069  54.72999954
C    22.43000031   9.06999969  55.06000137
C    22.72000122   9.73999977  56.26999664
C    21.73000145   9.89999962  57.21000290
C    20.36000061   9.75000000  56.86999893
C    16.29999924   8.56000042  56.23000336
C    15.59000015   9.02999973  57.36000061
C    14.21000004   8.94999981  57.52999878
C    24.10000038  10.26000023  56.63000107
H    24.61170959   9.67011547  57.39045334
H    19.64999962  10.10000038  58.88000107
H    18.60000038   8.17000008  54.41999817
H    20.82999992   8.30000019  53.79000092
H    23.19999886   8.67000008  54.40000153
H    22.01000023  10.36999893  58.15000153
H    13.81999969   9.31999969  58.47999954
H    24.73999977  10.34999943  55.75000000
H    24.14999962  11.28000069  57.01000214
S    13.07999992   7.72000027  53.94000244
C    10.36000061   8.01000023  54.52999878
C    11.67000008   8.18000031  54.92000198
C    12.01000023   8.64000034  56.23000336
C    11.00999928   8.78000069  57.16999817
C     9.65999985   8.57999992  56.79000092
C     8.60999966   8.71000004  57.74000168
C     7.28999996   8.45000076  57.42000198
C     6.94999981   8.01999950  56.11000061
C     7.95000029   7.88000011  55.17000198
C     9.30000019   8.22000027  55.44000244
C    13.45000076   8.60000038  56.40999603
C    14.17000008   8.07999992  55.30000305
C    15.54999924   8.02999973  55.17000198
C     5.56999969   7.46999979  55.84000015
H     5.07279062   8.13057709  55.12970352
H    10.17000008   7.46000004  53.60000229
H    11.25000000   8.98999977  58.20999908
H     8.85999966   9.06000042  58.74000168
H     6.56000042   8.60999966  58.20999908
H     7.72000027   7.23999977  54.33000183
H    16.07999992   7.90999985  54.22999954
H     5.05999994   7.53999996  56.81000137
H     5.64000034   6.42000008  55.56000137
S    13.09000015   5.72000027  50.87999725
C    10.39000034   5.26000023  51.56000137
C    11.72999954   5.07999992  51.81000137
C    12.23000050   4.44000006  52.98999786
C    11.33999920   3.86000013  53.87000275
C     9.94999981   4.00999975  53.64999771
C     8.93999958   3.52999973  54.52999878
C     7.59999990   3.63999987  54.26000214
C     7.13000011   4.19999981  53.04000092
C     8.07999992   4.65999985  52.15999985
C     9.47000027   4.67000008  52.45999908
C    13.67000008   4.51000023  53.20000076
C    14.25000000   5.28999996  52.15999985
C    15.62999916   5.46999979  52.15000153
C     5.65000010   4.46000004  52.91999817
H     5.23815918   4.21857595  51.94009781
H    10.06000042   5.75999975  50.65000153
H    11.69000053   3.25000000  54.69999695
H     9.31999969   3.02999997  55.41999817
H     6.89000034   3.40999985  55.04000092
H     7.75000000   5.23999977  51.30000305
H    16.13000107   6.07999992  51.39999771
H     5.05999994   3.94000006  53.68000031
H     5.55000019   5.50000000  53.26000214
S    16.90000153   3.98999977  55.63000107
C    19.55999947   4.65000010  55.06000137
C    18.22999954   4.73000002  54.72999954
C    17.79999924   5.25000000  53.46000290
C    18.72999954   5.80999947  52.62000275
C    20.06999969   5.89999962  53.06000137
C    21.04000092   6.42000008  52.14000320
C    22.39000130   6.26999950  52.34000397
C    22.79000092   5.53999996  53.48999786
C    21.94999886   5.07000017  54.47000122
C    20.55000114   5.26000023  54.25000000
C    16.39000130   4.97000027  53.20999908
C    15.76000023   4.32000017  54.31000137
C    14.40999985   4.01999998  54.27999878
C    24.26000214   5.23000002  53.68000031
H    24.71354294   5.57724333  54.60834503
H    19.82999992   3.91999984  55.81999969
H    18.38000107   6.19000006  51.65999985
H    20.73999786   6.75000000  51.14999771
H    23.16999817   6.57999992  51.65000153
H    22.23999977   4.53000021  55.37000275
H    13.83999920   3.65000010  55.13000107
H    24.73999977   5.60999966  52.77000046
H    24.34999847   4.13999987  53.60000229
