96

S    17.17000008   9.75000000  58.96999741
C    19.92000008   9.72000027  58.33000183
C    18.61999893   9.36999989  58.02000046
C    18.27000046   8.80999947  56.76000214
C    19.23999977   8.88000011  55.77000046
C    20.56999969   9.30999947  55.97999954
C    21.57999992   9.39000034  54.97000122
C    22.82999992   9.85999966  55.27999878
C    23.12999916  10.29999924  56.59999847
C    22.20999908  10.19999981  57.62000275
C    20.89999962   9.73999977  57.30999756
C    16.84000015   8.64999962  56.52999878
C    16.13999939   9.11000061  57.67000198
C    14.75000000   9.18000031  57.65999603
C    24.54000092  10.67000008  57.01000214
H    25.10394478   9.90617657  57.54539108
H    20.26000023  10.10000038  59.29000092
H    18.92000008   8.53999996  54.79000092
H    21.35999870   9.04999924  53.95999908
H    23.61000061   9.89000034  54.52000046
H    22.50999832  10.34000015  58.66000366
H    14.19000053   9.42000008  58.54999924
H    25.17999840  10.98000050  56.18000031
H    24.47000122  11.46000004  57.77000046
S    13.64999962   7.82000017  54.12000275
C    10.92000008   7.88000011  54.69999695
C    12.20999908   8.01999950  55.13999939
C    12.58999920   8.59000015  56.39999771
C    11.52999973   8.89999962  57.22000122
C    10.19000053   8.53999996  56.91999817
C     9.13999939   8.76999950  57.84999847
C     7.86000013   8.43000031  57.49000168
C     7.48000050   7.75000000  56.30000305
C     8.50000000   7.69000006  55.37000275
C     9.85000038   8.06999969  55.61000061
C    14.02999973   8.73000050  56.53999710
C    14.75999928   8.36999989  55.38000107
C    16.14999962   8.31999969  55.34999847
C     6.11999989   7.18999958  55.96000290
H     5.44666052   7.97674417  55.61978531
H    10.75000000   7.39000034  53.74000168
H    11.72999954   9.39999962  58.16999817
H     9.30000019   9.18000031  58.83999634
H     7.20000029   8.38999939  58.34999847
H     8.38999939   7.16000032  54.43000031
H    16.69999886   7.96000004  54.47999954
H     5.69999981   6.69000053  56.84000015
H     6.32000017   6.47000027  55.15999603
S    17.14999962  10.11999989  52.70000076
C    19.82999992  10.38000011  51.93000031
C    18.54999924  10.01000023  51.60999680
C    18.22999954   9.52000046  50.30000305
C    19.23999977   9.39000034  49.36999893
C    20.59000015   9.61000061  49.75999832
C    21.68999863   9.47000027  48.87000275
C    22.98000145   9.86999989  49.12000275
C    23.29000092  10.38000011  50.40000153
C    22.25000000  10.62999916  51.26999664
C    20.89999962  10.26999950  51.00000000
C    16.79000092   9.31999969  50.17000198
C    16.09000015   9.68000031  51.33999634
C    14.70999908   9.68000031  51.46999741
C    24.64999962  10.93999958  50.76000214
H    25.15995407  10.37338352  51.53910065
H    19.93999863  10.90999985  52.88000107
H    19.14999962   9.26000023  48.29999924
H    21.38999939   9.27999973  47.84000015
H    23.81000137   9.75000000  48.43000031
H    22.57999802  11.21999931  52.11000061
H    14.22999954  10.03999901  52.37999725
H    25.31999969  10.84000015  49.89999771
H    24.43000031  11.98999977  50.98999786
S    13.57999992   8.48999977  47.83000183
C    10.90999985   8.36999989  48.60000229
C    12.20999908   8.67000008  48.94000244
C    12.53000069   9.13999939  50.25000000
C    11.54999924   9.30000019  51.22000122
C    10.19999981   9.07999992  50.87999725
C     9.15000057   9.15000057  51.84999847
C     7.85000038   8.82000065  51.58000183
C     7.57999992   8.28999996  50.28999710
C     8.56999969   8.09000015  49.36000061
C     9.89999962   8.52999973  49.59000015
C    13.96999931   9.27999973  50.34999847
C    14.67000008   8.94999981  49.15999985
C    16.04999924   9.02999973  49.02000046
C     6.17000008   7.81000042  50.04000092
H     5.67405367   8.43347549  49.29608154
H    10.81999969   7.94000053  47.61000061
H    11.87000084   9.48999977  52.23999786
H     9.53999996   9.28999996  52.84999847
H     7.11999989   8.76999950  52.38999939
H     8.30000019   7.73000002  48.36999893
H    16.50000000   8.90999985  48.04000092
H     5.73000002   7.83999968  51.04999924
H     6.17999983   6.76000023  49.72999954
