96

S    16.86000061   9.36999989  58.62999725
C    19.56999969   9.18000031  58.01000214
C    18.27000046   8.90999985  57.64999771
C    17.92000008   8.56999969  56.31000137
C    18.93000031   8.26000023  55.40000153
C    20.25000000   8.67000008  55.68999863
C    21.37000084   8.39999962  54.85000229
C    22.65000153   8.73000050  55.24000168
C    22.88999939   9.47000027  56.42000198
C    21.86000061   9.64999962  57.31999969
C    20.58000183   9.10000038  57.02000046
C    16.47999954   8.52000046  56.12999725
C    15.78999996   9.07999992  57.23999786
C    14.40000057   9.07999992  57.31999969
C    24.30000114   9.90999985  56.77999878
H    24.71147537   9.27859879  57.56747818
H    19.76000023   9.48000050  59.03999710
H    18.51000023   7.96999979  54.45000076
H    21.05999947   7.96999979  53.89999771
H    23.54000092   8.45000076  54.68999863
H    22.04999924  10.03999901  58.30999756
H    13.83999920   9.35000038  58.20000076
H    24.89000130   9.90999985  55.86000061
H    24.34000015  10.88000107  57.27000427
S    13.23999977   7.79999971  53.72000122
C    10.50000000   7.82999992  54.43000031
C    11.82000065   8.05999947  54.73999786
C    12.20999908   8.47999954  56.04999924
C    11.23000050   8.80000019  56.97999954
C     9.88000011   8.47999954  56.70000076
C     8.85000038   8.80000019  57.62000275
C     7.50000000   8.67999935  57.34000397
C     7.13000011   7.97999954  56.17000198
C     8.09000015   7.79999971  55.20000076
C     9.48000050   8.07999992  55.38000107
C    13.64999962   8.63000011  56.23000336
C    14.32999992   8.10999966  55.10000229
C    15.71000004   8.01000023  55.07999802
C     5.75000000   7.36000013  56.06999969
H     5.19684839   7.94151878  55.33246231
H    10.36000061   7.28999996  53.48999786
H    11.42000008   9.38000011  57.88000107
H     9.31999969   8.93999958  58.59000397
H     6.71999979   8.78000069  58.09000015
H     7.76999998   7.44000006  54.22999954
H    16.35000038   7.67000008  54.27000046
H     5.46999979   7.36000013  57.12999725
H     5.78999996   6.28999996  55.80999756
S    13.81000042   5.98000002  50.84000015
C    11.16000080   5.29999971  51.45000076
C    12.50000000   5.19999981  51.73999786
C    12.94999981   4.46000004  52.88999939
C    12.03999996   3.96000004  53.80000305
C    10.65000057   4.09999990  53.55999756
C     9.63999939   3.65000010  54.45999908
C     8.30999947   3.81000018  54.15999985
C     7.88999987   4.36999989  52.93000031
C     8.82999992   4.80999994  52.02999878
C    10.21999931   4.73000002  52.34000397
C    14.37999916   4.63999987  53.04999924
C    15.00000000   5.40000010  52.02000046
C    16.31000137   5.84999990  52.00000000
C     6.43000031   4.74000025  52.77000046
H     5.96987772   4.27279902  51.89930344
H    10.85000038   5.78999996  50.52999878
H    12.35999966   3.40999985  54.68000031
H     9.89999962   3.24000001  55.43000031
H     7.63000011   3.58000016  54.98000336
H     8.55000019   5.40000010  51.17000198
H    16.76000023   6.25000000  51.10000229
H     5.84000015   4.55999994  53.67000198
H     6.47000027   5.80999947  52.50000000
S    17.67000008   4.19000006  55.43000031
C    20.30999947   4.76999998  54.75000000
C    18.97999954   4.85000038  54.41999817
C    18.53999901   5.52999973  53.23999786
C    19.38999939   5.92000008  52.22000122
C    20.76000023   5.72000027  52.50999832
C    21.70000076   6.30999994  51.62000275
C    23.05000114   6.25999975  51.88999939
C    23.52000046   5.53999996  53.02000046
C    22.63000107   5.00000000  53.92000198
C    21.22999954   5.23000002  53.76999664
C    17.09000015   5.44000053  53.09000015
C    16.53000069   4.76000023  54.19000244
C    15.21000004   4.30000019  54.12000275
C    25.00000000   5.31000042  53.23999786
H    25.21968842   5.40921497  54.30300903
H    20.72999954   4.30999994  55.63999939
H    19.13999939   6.34000015  51.25000000
H    21.38000107   6.76000023  50.68000031
H    23.75000000   6.58999968  51.13999939
H    23.08000183   4.46999979  54.75999832
H    14.73999977   3.68999982  54.87999725
H    25.51000214   6.10000038  52.68000031
H    25.15000153   4.30000019  52.84999847
