96

S    16.59000015  10.14999962  58.60000229
C    19.31999969  10.01000023  57.97999954
C    18.02000046   9.77999973  57.61000061
C    17.69000053   9.27999973  56.31000137
C    18.77000046   9.06000042  55.47000122
C    20.13000107   9.30999947  55.77999878
C    21.19999886   9.06000042  54.87999725
C    22.50999832   9.25000000  55.27999878
C    22.79000092   9.84000015  56.53999710
C    21.77999878   9.98999977  57.45999908
C    20.42000008   9.80000019  57.09999847
C    16.25000000   9.19000053  56.13999939
C    15.52000046   9.65999985  57.27000427
C    14.14999962   9.86999989  57.25000000
C    24.20999908  10.19999981  56.88999939
H    24.74566650   9.33579350  57.28282166
H    19.47000122  10.39000034  58.99000168
H    18.54999924   8.47999954  54.58000183
H    20.90999985   8.61999989  53.93000031
H    23.36999893   9.02000046  54.65000153
H    21.93000031  10.34000015  58.47999954
H    13.63999939  10.07999992  58.18999863
H    24.73999977  10.55999947  55.98999786
H    24.20999908  10.98000050  57.65999603
S    13.02999973   8.51000023  53.73000336
C    10.34999943   8.17000008  54.52999878
C    11.61000061   8.65999985  54.78000259
C    11.96000004   9.25000000  56.04000092
C    10.98000050   9.44000053  57.00000000
C     9.67000008   9.00000000  56.70999908
C     8.61999989   9.06000042  57.67000198
C     7.39000034   8.48999977  57.42000198
C     7.00000000   8.05999947  56.11999893
C     7.99000025   8.03999996  55.15999603
C     9.34000015   8.25000000  55.52000046
C    13.38999939   9.51000023  56.13999939
C    14.13000011   8.98999977  55.05000305
C    15.51000023   8.84000015  55.00000000
C     5.55999994   7.94000053  55.70000076
H     5.21358347   8.49850941  54.83042526
H    10.10000038   7.85000038  53.52000427
H    11.14999962   9.92999935  57.95999908
H     8.76999950   9.67000008  58.55999756
H     6.63999987   8.61999989  58.18999863
H     7.76999998   7.69999981  54.15000153
H    15.98999977   8.38000011  54.15000153
H     4.88999987   8.18000031  56.53999710
H     5.40000010   6.85999966  55.56999969
S    17.38999939  10.42000008  52.65999603
C    20.15999985  10.24000072  52.06999969
C    18.85000038  10.00000000  51.73999786
C    18.45000076   9.44000053  50.48999786
C    19.44000053   9.17000008  49.56999969
C    20.79999924   9.48999977  49.81999969
C    21.73000145   9.23999977  48.77999878
C    23.05999947   9.52999973  49.01000214
C    23.48999977  10.13000011  50.21999741
C    22.55000114  10.38000011  51.19999695
C    21.17000198  10.07999992  51.07999802
C    17.01000023   9.31999969  50.27999878
C    16.29999924   9.89999962  51.36000061
C    14.92000008  10.01999950  51.36000061
C    24.93000031  10.53999996  50.43000031
H    25.35071373   9.94814873  51.24290466
H    20.40999985  10.67000008  53.04000092
H    19.13999939   8.73000050  48.61999893
H    21.38000107   8.93999958  47.80000305
H    23.88000107   9.47000027  48.29999924
H    22.79999924  10.93999958  52.09999847
H    14.42999935  10.64000034  52.11000061
H    25.51000214  10.39999962  49.51000214
H    24.93000031  11.61000061  50.65999985
S    13.97999954   8.43000031  47.80000305
C    11.25000000   8.57999992  48.39000320
C    12.53999901   8.93999958  48.69999695
C    12.79000092   9.59000015  49.95999908
C    11.79999924   9.94000053  50.84999847
C    10.48999977   9.52999973  50.54000092
C     9.46000004   9.76000023  51.50000000
C     8.19000053   9.30000019  51.26999664
C     7.90000010   8.63000011  50.06000137
C     8.82999992   8.52999973  49.05000305
C    10.19000053   8.90999985  49.27000046
C    14.22999954   9.61999989  50.20999908
C    14.96000099   9.09000015  49.12000275
C    16.35000038   8.96000004  49.09999847
C     6.54999971   8.03999996  49.72999954
H     6.16799307   8.43615532  48.78913116
H    11.05999947   7.88000011  47.57999802
H    12.13000107  10.47999954  51.73999786
H     9.72000027  10.29000092  52.41000366
H     7.39000034   9.63000011  51.93999863
H     8.56000042   8.09000015  48.09999847
H    16.93000031   8.55000019  48.27999878
H     5.86000013   8.13000011  50.58000183
H     6.65999985   6.94999981  49.62999725
