96

S    16.77999878   8.97000027  58.86000061
C    19.37999916   9.61000061  58.02000046
C    18.19000053   8.96000004  57.78999710
C    17.77000046   8.45000076  56.51000214
C    18.78999901   8.47999954  55.58000183
C    20.07999802   9.00000000  55.81999969
C    21.11000061   8.89999962  54.84000397
C    22.39000130   9.36999989  55.02999878
C    22.72999954   9.86999989  56.31999969
C    21.77999878   9.98000050  57.30999756
C    20.42000008   9.63999939  57.05999756
C    16.32999992   8.43000031  56.29000092
C    15.67000008   8.67999935  57.50999832
C    14.28999996   8.78999996  57.65999603
C    24.18000031  10.10000038  56.65000153
H    24.53532982   9.48172569  57.47436523
H    19.52000046   9.98999977  59.02999878
H    18.71000099   7.97999954  54.61999893
H    20.92000008   8.32999992  53.94000244
H    23.06999969   9.11000061  54.22999954
H    21.90999985  10.14999962  58.37999725
H    13.81000042   8.96000004  58.61999893
H    24.77999878   9.85000038  55.77000046
H    24.40999985  11.14999962  56.86999893
S    13.09000015   8.01000023  53.92000198
C    10.39999962   7.83999968  54.58000183
C    11.68000031   8.14999962  54.99000168
C    12.05000019   8.39999962  56.35000229
C    11.03000069   8.47999954  57.28000259
C     9.68000031   8.25000000  56.91999817
C     8.64000034   8.36999989  57.88999939
C     7.37999964   7.95000029  57.54000092
C     7.07999992   7.44999981  56.25000000
C     8.10000038   7.26000023  55.34999847
C     9.39999962   7.82000017  55.58000183
C    13.48000050   8.56000042  56.53999710
C    14.14000034   8.27999973  55.31999969
C    15.52000046   8.30999947  55.14999771
C     5.65000010   7.09999990  55.90000153
H     5.37244749   7.67645502  55.01752472
H    10.26000023   7.46999979  53.56999969
H    11.26999950   8.82000065  58.29000092
H     8.93999958   8.65999985  58.88999939
H     6.61999989   8.07999992  58.29999924
H     7.90999985   6.85999966  54.36000061
H    16.01000023   8.11999989  54.20000076
H     4.94000006   7.02000046  56.72999954
H     5.75000000   6.05999994  55.56000137
S    17.12000084   9.92999935  52.60000229
C    19.85999870  10.25000000  51.83000183
C    18.54999924   9.89999962  51.55000305
C    18.22000122   9.52000046  50.21999741
C    19.18000031   9.39000034  49.22000122
C    20.53999901   9.67000008  49.52999878
C    21.63000107   9.38000011  48.66000366
C    22.92000008   9.81000042  48.86000061
C    23.21000099  10.34999943  50.13999939
C    22.23999977  10.39000034  51.11999893
C    20.86999893  10.15999985  50.83000183
C    16.79000092   9.32999992  50.06000137
C    16.03999901   9.55999947  51.24000168
C    14.65000057   9.59000015  51.23000336
C    24.57999992  10.88000107  50.47999954
H    25.05093193  10.25209236  51.23634338
H    20.17999840  10.43000031  52.84999847
H    18.98999977   9.09000015  48.20000076
H    21.31999969   8.82000065  47.77999878
H    23.68000031   9.68000031  48.09999847
H    22.55000114  10.72000027  52.11000061
H    14.09999943   9.81000042  52.14000320
H    25.23999977  10.90999985  49.61000061
H    24.46000099  11.87000084  50.93999863
S    13.68999958   8.40999985  47.58999634
C    10.95000076   8.43999958  48.13999939
C    12.23999977   8.60999966  48.59000397
C    12.55000019   9.22000027  49.84000397
C    11.54000092   9.44000053  50.76000214
C    10.19000053   9.22000027  50.40999985
C     9.11999989   9.18000031  51.33999634
C     7.82999992   8.82999992  51.02000427
C     7.63999987   8.30999947  49.71000290
C     8.60999966   8.34000015  48.74000168
C     9.92999935   8.73999977  49.08000183
C    13.99000072   9.35999966  50.01999664
C    14.75000000   9.02000046  48.87000275
C    16.13999939   9.02000046  48.86000061
C     6.28999996   7.69000006  49.40000153
H     5.68284798   8.36143875  48.79284668
H    10.69000053   7.88999987  47.23999786
H    11.72999954   9.76000023  51.79000092
H     9.40999985   9.35999966  52.36999893
H     7.04999971   8.76000023  51.77000046
H     8.34999943   8.05000019  47.71999741
H    16.69999886   8.67999935  47.98999786
H     5.78999996   7.57999992  50.37000275
H     6.32999992   6.67000008  48.99000168
