96

S    16.75000000   9.65999985  58.57999802
C    19.44000053   9.59999943  57.88000107
C    18.15000153   9.26000023  57.56000137
C    17.79000092   8.57999992  56.35000229
C    18.81000137   8.34999943  55.45000076
C    20.13999939   8.78000069  55.72000122
C    21.09999847   8.56999969  54.69999695
C    22.42000198   8.89999962  54.93000031
C    22.72999954   9.63999939  56.10000229
C    21.84000015   9.89000034  57.11999893
C    20.51000214   9.40999985  56.95999908
C    16.35000038   8.64000034  56.17000198
C    15.65000057   9.04999924  57.32999802
C    14.27999973   9.27999973  57.29000092
C    24.18000031   9.90999985  56.38999939
H    24.53339005   9.41525459  57.29467773
H    19.65999985  10.06999969  58.82999802
H    18.57999992   7.90999985  54.48999786
H    20.79999924   8.19000053  53.73000336
H    23.19999886   8.60999966  54.22999954
H    22.03000069  10.40999985  58.06000137
H    13.63999939   9.59000015  58.11000061
H    24.70999908   9.57999992  55.48999786
H    24.38999939  10.98999977  56.39999771
S    13.21000004   7.82999992  53.74000168
C    10.48999977   8.07999992  54.36000061
C    11.79999924   8.34999943  54.68999863
C    12.13000107   8.85999966  55.97999954
C    11.13000011   9.07999992  56.90999985
C     9.77000046   8.85999966  56.59999847
C     8.76999950   9.15999985  57.57999802
C     7.46000004   8.97999954  57.22000122
C     7.09999990   8.47000027  55.93999863
C     8.09000015   8.05000019  55.06999969
C     9.44999981   8.38999939  55.27999878
C    13.57999992   8.93000031  56.12999725
C    14.28999996   8.36999989  55.04000092
C    15.67999935   8.28999996  54.99000168
C     5.66999960   8.00000000  55.79000092
H     5.30511999   8.19317245  54.78121567
H    10.22999954   7.42000008  53.53000259
H    11.47999954   9.32999992  57.90999985
H     9.13000011   9.30999947  58.59000397
H     6.74000025   9.17000008  58.01000214
H     7.86999989   7.53000021  54.13999939
H    16.21999931   8.09000015  54.06999969
H     5.00999975   8.46000004  56.53999710
H     5.56999969   6.94000006  56.04000092
S    14.47000027   5.92000008  51.04999924
C    11.79999924   5.31000042  51.56000137
C    13.12000084   5.19999981  51.93999863
C    13.55999947   4.55999994  53.15000153
C    12.60000038   3.91999984  53.90999603
C    11.23000050   4.05999994  53.61000061
C    10.19999981   3.60000014  54.47999954
C     8.85999966   3.82999992  54.26000214
C     8.43999958   4.57999992  53.13000107
C     9.42000008   4.97000027  52.25000000
C    10.81999969   4.76000023  52.42000198
C    15.00000000   4.61000013  53.31999969
C    15.59999943   5.42999983  52.32999802
C    16.92000008   5.86000013  52.37999725
C     7.04999971   5.09999990  52.83000183
H     6.55823231   4.42292881  52.13154602
H    11.46999931   5.95000029  50.73999786
H    13.00000000   3.51999998  54.84000397
H    10.57000065   3.07999992  55.35999680
H     8.13000011   3.52999973  55.00000000
H     9.19999981   5.52999973  51.33999634
H    17.31999969   6.71999979  51.84999847
H     6.47000027   5.23999977  53.75000000
H     7.13999987   6.12999964  52.47000122
S    18.25000000   4.13000011  55.72999954
C    20.88999939   4.77999973  55.20000076
C    19.56999969   4.88000011  54.80999756
C    19.12999916   5.44000053  53.57999802
C    20.05000114   5.82999992  52.62000275
C    21.42000008   5.69999981  52.91999817
C    22.43999863   6.17000008  52.04999924
C    23.78000069   5.95000029  52.25000000
C    24.13999939   5.40000010  53.50999832
C    23.19999886   5.22000027  54.51000214
C    21.80999947   5.19999981  54.20999908
C    17.68000031   5.32000017  53.41999817
C    17.06999969   4.65000010  54.51000214
C    15.76000023   4.19999981  54.41999817
C    25.59999847   5.26999998  53.86000061
H    25.90578461   6.08068609  54.52135086
H    21.14000130   4.38000011  56.18000031
H    19.71999931   6.23000050  51.65999985
H    22.06999969   6.70000029  51.17000198
H    24.50000000   6.32999992  51.53999710
H    23.48999977   4.92999983  55.52000046
H    15.29000092   3.55999994  55.15999603
H    26.17000198   5.31000042  52.91999817
H    25.81000137   4.26999998  54.26000214
