96

S    17.38999939   9.22000027  59.03999710
C    20.03000069   9.55999947  58.22999954
C    18.73999977   9.22999954  57.88000107
C    18.37000084   8.73999977  56.59000015
C    19.30999947   8.65999985  55.59000015
C    20.62999916   9.06999969  55.90999985
C    21.61000061   9.09000015  54.88999939
C    22.93000031   9.30999947  55.24000168
C    23.31000137   9.76000023  56.52999878
C    22.39000130   9.76000023  57.55000305
C    21.02999878   9.52000046  57.22000122
C    16.93000031   8.47999954  56.52999878
C    16.26000023   8.76999950  57.74000168
C    14.88999939   8.97000027  57.81999969
C    24.75000000   9.68999958  56.97000122
H    24.99187088   8.72962856  57.42528915
H    20.23999977   9.94000053  59.22999954
H    19.04999924   8.23999977  54.61999893
H    21.19999886   8.82999992  53.92000198
H    23.71000099   9.06000042  54.54000092
H    22.79000092   9.77000046  58.55999756
H    14.52999973   9.61000061  58.61999893
H    25.38999939   9.81000042  56.07999802
H    24.90999985  10.52999973  57.64999771
S    13.73000050   8.00000000  54.15999985
C    11.05000019   7.75000000  54.82999802
C    12.28999996   8.23999977  55.18000031
C    12.64999962   8.67999935  56.50000000
C    11.64999962   8.96000004  57.39999771
C    10.31999969   8.57999992  57.06999969
C     9.27999973   8.60000038  58.04000092
C     8.01999950   8.10000038  57.80000305
C     7.73000002   7.68000031  56.46999741
C     8.67999935   7.73999977  55.47000122
C    10.03000069   8.05999947  55.76000214
C    14.09000015   8.61999989  56.72999954
C    14.78999996   8.25000000  55.56000137
C    16.17000008   8.17000008  55.40000153
C     6.34999990   7.14999962  56.13999939
H     5.77859879   7.86425161  55.54717255
H    10.86999989   7.14999962  53.94000244
H    11.82000065   9.26999950  58.43000031
H     9.55999947   9.02000046  59.00000000
H     7.25000000   8.14000034  58.55999756
H     8.34000015   7.30999994  54.52999878
H    16.63999939   8.05999947  54.41999817
H     5.88000011   6.91999960  57.11000061
H     6.43000031   6.17999983  55.63999939
S    13.21000004   5.84000015  51.03000259
C    10.55999947   5.25000000  51.59999847
C    11.87000084   5.21000004  52.01000214
C    12.38999939   4.65000010  53.22999954
C    11.44000053   4.17000008  54.10999680
C    10.06000042   4.28000021  53.81000137
C     9.03999996   3.71000004  54.62999725
C     7.71000004   3.88000011  54.33000183
C     7.30000019   4.53000021  53.13000107
C     8.23999977   4.84000015  52.18000031
C     9.59999943   4.85000038  52.56999969
C    13.83999920   4.69000006  53.33000183
C    14.40000057   5.47999954  52.29999924
C    15.69000053   5.98999977  52.23999786
C     5.82999992   4.46999979  52.77000046
H     5.58781958   3.72208881  52.01496506
H    10.22999954   5.78000021  50.70999908
H    11.92999935   3.61999989  54.91000366
H     9.32999992   3.10999990  55.48999786
H     7.02000046   3.22000003  54.84000397
H     8.01000023   5.03999996  51.12999725
H    16.06999969   6.65000010  51.45999908
H     5.32000017   4.19999981  53.70999908
H     5.51999998   5.46000004  52.43999863
S    17.30999947   3.98000002  55.27000046
C    19.85999870   4.90999985  54.65000153
C    18.50000000   5.05999994  54.51000214
C    17.90999985   5.84999990  53.47999954
C    18.79999924   6.58999968  52.70999908
C    20.19000053   6.38000011  52.75000000
C    21.11000061   6.84000015  51.77000046
C    22.46999931   6.72999954  51.93000031
C    23.02000046   6.09000015  53.08000183
C    22.18000031   5.45000029  53.95999908
C    20.76999855   5.59000015  53.81000137
C    16.51000023   5.52999973  53.27999878
C    16.00000000   4.61999989  54.25000000
C    14.67000008   4.23999977  54.36000061
C    24.47000122   6.21999979  53.47000122
H    24.82457733   5.54630280  54.25006866
H    20.13999939   4.19000006  55.41999817
H    18.37000084   6.97000027  51.79000092
H    20.72000122   7.40000010  50.91999817
H    23.09999847   7.35000038  51.30000305
H    22.56000137   4.90000010  54.81999969
H    14.15999985   3.55999994  55.04000092
H    24.50000000   7.26000023  53.80000305
H    25.12000084   6.14000034  52.58999634
