96

S    16.79000092   9.30999947  58.93000031
C    19.45999908   9.67000008  58.18000031
C    18.20000076   9.19999981  57.87000275
C    17.94000053   8.71000004  56.55000305
C    18.92000008   8.56999969  55.59000015
C    20.17999840   9.07999992  55.96000290
C    21.25999832   8.90999985  55.05000305
C    22.56000137   9.22000027  55.35999680
C    22.85000038   9.75000000  56.63999939
C    21.87000084   9.92999935  57.57999802
C    20.51000214   9.67000008  57.22999954
C    16.50000000   8.57999992  56.40999603
C    15.73999977   8.97000027  57.54000092
C    14.34999943   8.93999958  57.65999603
C    24.27999878  10.11000061  56.97000122
H    24.75492096   9.35862923  57.60086441
H    19.73999977  10.07999992  59.15000153
H    18.71000099   8.01000023  54.68000031
H    20.94000053   8.39999962  54.13999939
H    23.36000061   8.89999962  54.69999695
H    22.14999962  10.11999989  58.61999893
H    13.93000031   9.04999924  58.66000366
H    24.89000130  10.31000042  56.07999802
H    24.21999931  11.07999992  57.48000336
S    13.27999973   7.51999950  54.08000183
C    10.62000084   7.27999973  54.86000061
C    11.89000034   7.72000027  55.15999603
C    12.18999958   8.23000050  56.45999908
C    11.18000031   8.34000015  57.41000366
C     9.85999966   7.92000008  57.11999893
C     8.80000019   8.00000000  58.06999969
C     7.53000021   7.59999990  57.71999741
C     7.26999998   7.00000000  56.45999908
C     8.28999996   6.84000015  55.54999924
C     9.59000015   7.34000015  55.84000015
C    13.60999966   8.51000023  56.55000305
C    14.30999947   8.18000031  55.37000275
C    15.70000076   8.23000050  55.31999969
C     5.86999989   6.57000017  56.11999893
H     5.40159130   7.10937977  55.29673386
H    10.36999893   6.85999966  53.88000107
H    11.46999931   8.76999950  58.36999893
H     8.93000031   8.30999947  59.10999680
H     6.74000025   7.72000027  58.44999695
H     8.17000008   6.37000036  54.58000183
H    16.20000076   7.96999979  54.38999939
H     5.27999973   6.70000029  57.04000092
H     5.86999989   5.50000000  55.84999847
S    13.42000008   5.75999975  51.04000092
C    10.80999947   5.23999977  51.81999969
C    12.15999985   5.05000019  52.06999969
C    12.67000008   4.33999968  53.18999863
C    11.82999992   3.54999995  53.95000076
C    10.44000053   3.61999989  53.68999863
C     9.51000023   2.98000002  54.55999756
C     8.15999985   3.07999992  54.29000092
C     7.68000031   3.78999996  53.15999985
C     8.56000042   4.46999979  52.34000397
C     9.94000053   4.50000000  52.65999603
C    14.11999893   4.50000000  53.29000092
C    14.60000038   5.38999987  52.30999756
C    15.93999958   5.78999996  52.34000397
C     6.21000004   4.05999994  52.95000076
H     5.89771509   3.58447433  52.02024078
H    10.59000015   5.82000017  50.93000031
H    12.15999985   3.12999988  54.89999771
H     9.81999969   2.53999996  55.50000000
H     7.46000004   2.57999992  54.94999695
H     8.21000004   4.97000027  51.44000244
H    16.35000038   6.43000031  51.56000137
H     5.59999990   3.65999985  53.76999664
H     6.10000038   5.13000011  52.75000000
S    17.42000008   3.93000007  55.56000137
C    20.09000015   4.44000006  54.81999969
C    18.73999977   4.61999989  54.59000015
C    18.25000000   5.22000027  53.39000320
C    19.14999962   5.75999975  52.48000336
C    20.52000046   5.77000046  52.83000183
C    21.51000023   6.57999992  52.19999695
C    22.82999992   6.71999979  52.55000305
C    23.29999924   5.92999983  53.62999725
C    22.43999863   5.03000021  54.20999908
C    21.04000092   4.99000025  53.92000198
C    16.80999947   5.18000031  53.25000000
C    16.26000023   4.39000034  54.29999924
C    14.94999981   3.94000006  54.27000046
C    24.70000076   6.11000013  54.19000244
H    25.07209206   5.43737459  54.96280289
H    20.45000076   3.91999984  55.70000076
H    18.81000137   6.37000036  51.65000153
H    21.18999863   6.97000027  51.23000336
H    23.50000000   7.26000023  51.90000153
H    22.82999992   4.61000013  55.13000107
H    14.57999992   3.28999996  55.05000305
H    24.79000092   7.16000032  54.51000214
H    25.48000145   6.01000023  53.41999817
