96

S    16.61000061   9.43000031  58.61000061
C    19.37000084   9.09000015  58.18999863
C    18.07999992   9.01000023  57.70999908
C    17.71000099   8.60999966  56.38000107
C    18.76000023   8.34999943  55.52999878
C    20.10000038   8.56999969  55.93000031
C    21.07999992   8.50000000  54.89999771
C    22.39999962   8.78999996  55.17000198
C    22.73999977   9.25000000  56.47999573
C    21.78999901   9.35999966  57.47000122
C    20.43999863   8.96000004  57.27000427
C    16.27000046   8.61999989  56.14999771
C    15.51000023   9.03999996  57.27000427
C    14.14000034   9.26000023  57.31999969
C    24.05999947   9.94999981  56.65000153
H    24.70896530   9.42226887  57.34888840
H    19.48999977   9.46000004  59.20999908
H    18.52000046   8.01999950  54.52000046
H    20.61000061   8.43999958  53.92000198
H    23.02999878   9.03999996  54.33000183
H    22.03000069   9.85999966  58.40999985
H    13.59000015   9.52000046  58.22000122
H    24.48999786  10.15999985  55.65999985
H    23.81000137  10.95000076  57.02000046
S    13.10999966   7.94000053  53.73000336
C    10.32999992   8.06999969  54.31999969
C    11.64000034   8.27999973  54.66999817
C    12.01000023   8.69999981  55.98999786
C    11.02000046   9.02999973  56.90999985
C     9.68000031   8.97999954  56.47999573
C     8.64999962   9.07999992  57.45999908
C     7.36000013   8.69999981  57.22000122
C     6.97000027   8.23000050  55.93999863
C     7.92000008   8.09000015  54.94999695
C     9.27999973   8.40999985  55.20999908
C    13.43999958   8.89999962  56.16000366
C    14.18000031   8.45000076  55.04000092
C    15.57000065   8.32999992  54.98000336
C     5.51999998   7.85000038  55.70999908
H     5.09421873   8.19062519  54.76618576
H    10.14999962   7.59999990  53.36000061
H    11.23000050   9.34000015  57.93000031
H     8.93000031   9.07999992  58.50999832
H     6.69000053   8.56999969  58.06999969
H     7.71000004   7.44999981  54.09999847
H    16.06999969   7.85000038  54.13999939
H     4.98000002   8.22000027  56.58000183
H     5.46999979   6.75000000  55.72000122
S    13.89999962   5.84999990  50.83000183
C    11.18999958   5.33999968  51.39999771
C    12.51999950   5.17000008  51.70999908
C    12.94999981   4.61999989  52.95999908
C    11.98999977   4.05999994  53.79000092
C    10.62999916   4.30999994  53.53000259
C     9.55999947   3.75000000  54.29000092
C     8.23000050   3.96000004  54.03999710
C     7.88000011   4.79999971  52.94000244
C     8.82000065   5.28999996  52.05999756
C    10.19000053   5.03000021  52.36000061
C    14.39000034   4.69999981  53.20000076
C    15.00000000   5.46000004  52.16999817
C    16.36999893   5.72000027  52.15999985
C     6.43000031   5.10999966  52.64999771
H     5.93844080   4.44746399  51.93759537
H    10.85999966   5.98999977  50.59999847
H    12.23999977   3.45999980  54.65999985
H     9.78999996   2.93000007  54.95999908
H     7.40000010   3.50000000  54.55999756
H     8.60999966   5.65999985  51.05999756
H    16.75000000   6.32000017  51.33999634
H     5.98999977   5.15999985  53.64999771
H     6.34999990   6.15000010  52.30999756
S    17.70000076   4.11000013  55.59000015
C    20.36000061   4.73000002  55.05000305
C    19.03000069   4.86000013  54.69999695
C    18.59000015   5.45000029  53.47000122
C    19.59000015   5.92000008  52.63000107
C    20.95999908   5.79999971  52.95999908
C    21.94999886   6.12999964  52.00000000
C    23.29000092   5.96000004  52.29000092
C    23.71000099   5.45000029  53.54000092
C    22.78000069   5.07000017  54.47999954
C    21.38999939   5.23000002  54.22000122
C    17.17000008   5.27999973  53.22000122
C    16.56999969   4.59000015  54.29999924
C    15.21000004   4.28999996  54.25000000
C    25.17000008   5.10999966  53.79000092
H    25.58345032   5.38801003  54.75946808
H    20.65000153   4.26000023  55.98999786
H    19.36000061   6.44999981  51.70999908
H    21.60000038   6.34000015  50.98999786
H    24.02000046   6.21999979  51.52000046
H    23.16999817   4.51999998  55.31999969
H    14.86999989   3.55999994  54.98000336
H    25.73999786   5.59000015  52.98999786
H    25.32999992   4.02999973  53.68999863
