96

S    16.63999939   9.55999947  58.44999695
C    19.30999947   9.84000015  57.81999969
C    18.07999992   9.35999966  57.43000031
C    17.78000069   8.73000050  56.18000031
C    18.85000038   8.48999977  55.34000015
C    20.15000153   8.94999981  55.66999817
C    21.18000031   8.93000031  54.68999863
C    22.46000099   9.23999977  55.07999802
C    22.77000046   9.59999943  56.42000198
C    21.73999977   9.84000015  57.29999924
C    20.38999939   9.63000011  56.91999817
C    16.35000038   8.53999996  56.00999832
C    15.60999966   8.94999981  57.14000320
C    14.22000027   9.03999996  57.11000061
C    24.14999962  10.07999992  56.81999969
H    24.76229858   9.37514210  57.38246155
H    19.43000031  10.26000023  58.81000137
H    18.63999939   8.19999981  54.31999969
H    20.93000031   8.52000046  53.72000122
H    23.34000015   9.11000061  54.45000076
H    21.96000099  10.21999931  58.29000092
H    13.68000031   9.31999969  58.01000214
H    24.80999947  10.39999962  56.00999832
H    23.85000038  10.82999992  57.56000137
S    13.20000076   7.68000031  53.50000000
C    10.50000000   7.57999992  54.22999954
C    11.77999973   7.97999954  54.52999878
C    12.13000107   8.59000015  55.77000046
C    11.10999966   8.76999950  56.70000076
C     9.77999973   8.42000008  56.38999939
C     8.73000050   8.78999996  57.28000259
C     7.42999983   8.59000015  56.88999939
C     7.05999947   7.96999979  55.65999985
C     8.05999947   7.60999966  54.79000092
C     9.43000031   7.82000017  55.13000107
C    13.57999992   8.64999962  55.91999817
C    14.29999924   8.26000023  54.77000427
C    15.69000053   8.19999981  54.81999969
C     5.61999989   7.53999996  55.52999878
H     5.07205772   8.09505844  54.76857376
H    10.29999924   7.00999975  53.31999969
H    11.35000038   9.19000053  57.67000198
H     8.97999954   9.26000023  58.22999954
H     6.69000053   8.98999977  57.57999802
H     7.69999981   7.27999973  53.81999969
H    16.21999931   7.94000053  53.90999603
H     5.10999966   7.67000008  56.49000168
H     5.71000004   6.51999998  55.14999771
S    17.32999992  10.19000053  52.56999969
C    20.09000015  10.18000031  52.02999878
C    18.81000137   9.92999935  51.62000275
C    18.50000000   9.39999962  50.31999969
C    19.55000114   9.25000000  49.43999863
C    20.89999962   9.50000000  49.80999756
C    21.96000099   9.43000031  48.87000275
C    23.28000069   9.67000008  49.20000076
C    23.46999931  10.31000042  50.45000076
C    22.50999832  10.39000034  51.43000031
C    21.15999985  10.06000042  51.11000061
C    17.06999969   9.31999969  50.07999802
C    16.31000137   9.78999996  51.18000031
C    14.93000031   9.76000023  51.25999832
C    24.86000061  10.76000023  50.84999847
H    25.27315712  10.08327579  51.59795761
H    20.40999985  10.76000023  52.90000153
H    19.25000000   8.96000004  48.43000031
H    21.67000008   9.19999981  47.84999847
H    24.11999893   9.55999947  48.52000427
H    22.80999947  10.84000015  52.36999893
H    14.47000027  10.03000069  52.21000290
H    25.43000031  10.72999954  49.91000366
H    24.69000053  11.77999973  51.19999695
S    13.80000019   7.94000053  47.95000076
C    11.09000015   8.19000053  48.46000290
C    12.38000011   8.48999977  48.85000229
C    12.75000000   9.17000008  50.05000305
C    11.72000027   9.51000023  50.91999817
C    10.36999893   9.15999985  50.65000153
C     9.34000015   9.27999973  51.62000275
C     8.02999973   8.97000027  51.31000137
C     7.76999998   8.28999996  50.08999634
C     8.76000023   8.03999996  49.16999817
C    10.07999992   8.51000023  49.40000153
C    14.19000053   9.26000023  50.18000031
C    14.92000008   8.69000053  49.10999680
C    16.31000137   8.69000053  49.08000183
C     6.40999985   7.67000008  49.88999939
H     5.74220705   8.32358456  49.32876968
H    10.88999939   7.55999994  47.58999634
H    11.98999977   9.92999935  51.88000107
H     9.57999992   9.65999985  52.61000061
H     7.25000000   9.11999989  52.05999756
H     8.56000042   7.39000034  48.31999969
H    16.77999878   8.14999962  48.27000046
H     5.95000029   7.26000023  50.79999924
H     6.57999992   6.80999994  49.22000122
