96

S    16.69000053   9.26000023  58.82999802
C    19.43000031   9.26000023  58.27000046
C    18.13999939   9.03999996  57.83000183
C    17.86999893   8.64000034  56.49000168
C    18.89999962   8.27000046  55.63999939
C    20.20999908   8.61999989  56.04000092
C    21.27000046   8.56000042  55.07999802
C    22.57999802   8.86999989  55.38000107
C    22.90999985   9.21000004  56.70999908
C    21.88999939   9.31999969  57.63000107
C    20.50000000   9.13000011  57.35000229
C    16.43000031   8.67999935  56.27999878
C    15.65000057   9.02999973  57.41000366
C    14.26000023   9.10000038  57.36000061
C    24.33000183   9.64999962  56.98999786
H    24.84025764   9.12557030  57.79790497
H    19.55999947   9.48999977  59.31999969
H    18.78999901   8.11999989  54.56999969
H    20.98999977   8.42000008  54.03999710
H    23.34000015   9.04999924  54.62999725
H    22.06000137   9.63999939  58.64999771
H    13.75000000   9.09000015  58.30999756
H    24.89999962   9.63000011  56.05999756
H    24.36000061  10.70000076  57.29000092
S    13.27000046   7.76000023  53.79000092
C    10.62000084   7.37999964  54.61000061
C    11.87000084   7.86999989  54.88999939
C    12.18999958   8.61999989  56.06999969
C    11.19999981   8.88000011  57.00000000
C     9.92999935   8.28999996  56.79000092
C     8.89999962   8.63000011  57.70000076
C     7.60999966   8.23999977  57.44999695
C     7.30999994   7.40999985  56.32999802
C     8.27000046   7.09000015  55.40000153
C     9.59999943   7.59000015  55.56999969
C    13.63000011   8.75000000  56.16000366
C    14.40000057   8.30999947  55.05000305
C    15.77999973   8.22000027  55.12000275
C     5.86000013   7.09000015  56.05999756
H     5.41362000   7.64974642  55.23809052
H    10.46000004   7.07999992  53.57999802
H    11.42000008   9.50000000  57.85999680
H     9.19000053   9.36999989  58.43999863
H     6.75000000   8.64000034  57.97999954
H     8.06999969   6.53999996  54.48999786
H    16.31000137   7.79999971  54.27000046
H     5.23000002   7.17999983  56.95999908
H     5.86000013   6.01999998  55.81999969
S    12.94999981   5.36999989  50.79000092
C    10.29999924   5.25000000  51.62000275
C    11.61999893   4.99000025  51.90000153
C    12.07999992   4.39000034  53.11000061
C    11.13999939   3.91999984  54.01000214
C     9.76000023   4.15000010  53.81000137
C     8.69999981   3.65000010  54.64000320
C     7.40000010   3.71000004  54.22000122
C     7.03000021   4.32000017  52.98999786
C     8.01000023   4.86999989  52.18999863
C     9.36999989   4.69000006  52.54000092
C    13.53000069   4.51999998  53.23999786
C    14.14000034   5.00999975  52.04999924
C    15.48999977   5.33999968  52.04999924
C     5.59000015   4.67999983  52.69000244
H     5.18382645   4.27382708  51.76364136
H    10.03999901   5.82999992  50.73999786
H    11.47999954   3.08999991  54.62999725
H     8.96000004   3.25000000  55.61000061
H     6.57999992   3.44000006  54.87999725
H     7.73999977   5.36000013  51.25000000
H    15.90999985   5.98000002  51.29000092
H     5.03000021   4.42000008  53.60000229
H     5.49000025   5.77000046  52.55000305
S    16.90000153   4.05999994  55.56000137
C    19.52000046   4.76000023  54.95999908
C    18.20000076   4.80999994  54.59999847
C    17.71000099   5.32999992  53.36000061
C    18.60999870   5.86999989  52.44999695
C    19.98999977   5.88000011  52.74000168
C    20.97999954   6.23000050  51.77000046
C    22.32000160   6.11000013  52.05999756
C    22.72000122   5.68000031  53.36000061
C    21.78999901   5.29999971  54.29999924
C    20.39999962   5.26999998  53.96999741
C    16.28000069   5.13999987  53.18999863
C    15.71000004   4.48000002  54.31999969
C    14.34999943   4.19000006  54.31999969
C    24.20999908   5.64000034  53.59000397
H    24.52881622   5.34243822  54.58895874
H    19.92000008   4.33999968  55.87999725
H    18.18000031   6.12999964  51.49000168
H    20.59999847   6.51000023  50.79000092
H    22.96999931   6.50000000  51.29000092
H    22.11000061   4.79999971  55.20999908
H    14.02999973   3.56999993  55.14999771
H    24.44000053   6.71000004  53.47000122
H    24.75000000   5.12000036  52.80000305
