96

S    17.15999985   9.78999996  58.90999603
C    19.86999893   9.67000008  58.27000046
C    18.56999969   9.39000034  57.90999985
C    18.20999908   8.78999996  56.66999817
C    19.12999916   8.82000065  55.63999939
C    20.46999931   9.18000031  55.91999817
C    21.53000069   9.04999924  54.98000336
C    22.84000015   9.21000004  55.34999847
C    23.18000031   9.59000015  56.68000031
C    22.21999931   9.68000031  57.65999603
C    20.86000061   9.46000004  57.27000427
C    16.75000000   8.75000000  56.56999969
C    16.01000023   9.19000053  57.70000076
C    14.61999989   9.21000004  57.78999710
C    24.63000107   9.84000015  57.02999878
H    24.98581505   9.26358128  57.88395309
H    20.13999939  10.18000031  59.19000244
H    18.86000061   8.55000019  54.61999893
H    21.27000046   8.86999989  53.94000244
H    23.61999893   9.26000023  54.59999847
H    22.39999962   9.86999989  58.70999908
H    14.17000008   9.51000023  58.73000336
H    25.20999908   9.57999992  56.13999939
H    24.79999924  10.92000008  57.18000031
S    13.55999947   8.19999981  54.15000153
C    10.77000046   8.18000031  54.72999954
C    12.07999992   8.40999985  55.10000229
C    12.39999962   8.78000069  56.44000244
C    11.38000011   8.93000031  57.36000061
C    10.03999901   8.60999966  57.02999878
C     8.98999977   8.56000042  57.98999786
C     7.71000004   8.23000050  57.63000107
C     7.40000010   7.78999996  56.31000137
C     8.38000011   7.86999989  55.34999847
C     9.71000004   8.27000046  55.66999817
C    13.83999920   8.86999989  56.68000031
C    14.61999989   8.59000015  55.52999878
C    16.00000000   8.46000004  55.43000031
C     6.00000000   7.28999996  56.00999832
H     5.55848026   7.80273294  55.15544128
H    10.48999977   7.73000002  53.79000092
H    11.71000004   9.06000042  58.39000320
H     9.22000027   8.93000031  58.97999573
H     7.00000000   8.10000038  58.43999863
H     8.18000031   7.37999964  54.40000153
H    16.47999954   8.09000015  54.52999878
H     5.21000004   7.42000008  56.75000000
H     6.09000015   6.23000050  55.75000000
S    17.28999901  10.18000031  52.70000076
C    19.93000031  10.25000000  51.90999985
C    18.63999939   9.89999962  51.58000183
C    18.17000008   9.35000038  50.34999847
C    19.12999916   9.23999977  49.36000061
C    20.50000000   9.48000050  49.61999893
C    21.52000046   9.19999981  48.68000031
C    22.82999992   9.59999943  48.85000229
C    23.19000053  10.25000000  50.06000137
C    22.27000046  10.34000015  51.07999802
C    20.89999962   9.98999977  50.90999985
C    16.70999908   9.30000019  50.27000046
C    16.09000015   9.80000019  51.44000244
C    14.70999908   9.88000011  51.49000168
C    24.63000107  10.57000065  50.38000107
H    25.13598061   9.83597374  51.00712967
H    20.19000053  10.77999973  52.81999969
H    18.82999992   8.65999985  48.48999786
H    21.19999886   8.65999985  47.78999710
H    23.52000046   9.53999996  48.02000046
H    22.53000069  10.72999954  52.05999756
H    14.22000027  10.06000042  52.43999863
H    25.15000153  10.65999985  49.41999817
H    24.63999939  11.54999924  50.86000061
S    13.48999977   8.96000004  47.84999847
C    10.85999966   8.52000046  48.63999939
C    12.10999966   8.98999977  48.95999908
C    12.48999977   9.31999969  50.30000305
C    11.46999931   9.36999989  51.23000336
C    10.11999989   9.07999992  50.90999985
C     9.11000061   9.11999989  51.90999985
C     7.81000042   8.76999950  51.59999847
C     7.49000025   8.39999962  50.27000046
C     8.45000076   8.26000023  49.29999924
C     9.81000042   8.56999969  49.59999847
C    13.92000008   9.55999947  50.37000275
C    14.63000107   9.19999981  49.19000244
C    16.00000000   9.03999996  49.09000015
C     6.05000019   8.14000034  49.87999725
H     5.71519852   8.54603577  48.92546082
H    10.62000084   8.23000050  47.62000275
H    11.59000015   9.68999958  52.25999832
H     9.26999950   9.68999958  52.81999969
H     6.98000002   9.06000042  52.22999954
H     8.21000004   8.02999973  48.27000046
H    16.47999954   8.85999966  48.13000107
H     5.33999968   8.46000004  50.65999985
H     5.98000002   7.04999971  49.75000000
