96

S    16.69000053  10.06999969  58.82999802
C    19.47999954   9.61000061  58.29999924
C    18.15000153   9.63999939  57.91999817
C    17.80999947   9.28999996  56.58000183
C    18.78999901   9.04999924  55.61999893
C    20.15999985   9.15999985  55.94999695
C    21.18999863   9.30999947  54.98000336
C    22.50999832   9.51000023  55.31999969
C    22.79999924   9.68999958  56.70000076
C    21.84000015   9.71000004  57.68000031
C    20.48999977   9.42000008  57.32999802
C    16.36999893   9.26999950  56.38999939
C    15.59000015   9.71000004  57.48000336
C    14.19999981   9.71000004  57.50000000
C    24.18999863  10.18000031  57.05999756
H    24.55388451   9.72336006  57.98041534
H    19.80999947   9.98999977  59.27000046
H    18.61999893   9.19000053  54.55999756
H    20.82999992   9.07999992  53.97999573
H    23.28000069   9.56999969  54.55999756
H    22.01000023   9.96000004  58.72000122
H    13.63999939   9.96000004  58.39000320
H    24.76000023   9.92999935  56.14999771
H    24.27999878  11.26999950  57.21000290
S    13.25000000   8.19000053  53.95999908
C    10.47999954   8.13000011  54.62999725
C    11.77999973   8.48999977  54.89999771
C    12.10000038   9.02000046  56.18999863
C    11.10999966   9.15999985  57.15999985
C     9.77999973   8.78000069  56.88000107
C     8.80999947   8.82000065  57.91999817
C     7.53000021   8.40999985  57.65999603
C     7.14999962   8.01999950  56.35000229
C     8.07999992   7.92999983  55.34000015
C     9.44000053   8.23999977  55.59000015
C    13.53000069   9.19999981  56.38000107
C    14.28999996   8.82000065  55.25000000
C    15.67999935   8.93000031  55.21999741
C     5.73000002   7.59000015  56.02000427
H     5.34545088   8.18818760  55.19393158
H    10.19000053   7.55999994  53.75000000
H    11.30000019   9.64999962  58.11000061
H     9.15999985   9.11999989  58.90999603
H     6.84000015   8.25000000  58.48999786
H     7.62000036   7.69000006  54.38000107
H    16.27000046   8.59000015  54.36999893
H     5.17000008   7.64999962  56.95999908
H     5.73000002   6.51999998  55.77999878
S    17.28999901  10.31999969  52.57999802
C    19.96999931  10.44999981  51.95999908
C    18.73999977   9.90999985  51.65000153
C    18.46999931   9.26000023  50.40000153
C    19.51000023   9.19999981  49.50000000
C    20.81000137   9.68999958  49.77000427
C    21.91999817   9.48000050  48.89999771
C    23.16999817   9.90999985  49.27999878
C    23.40999985  10.53999996  50.52999878
C    22.34000015  10.80999947  51.35000229
C    21.02999878  10.36999893  51.02000427
C    17.02999878   9.13000011  50.20999908
C    16.27000046   9.61000061  51.31000137
C    14.88000011   9.59999943  51.33999634
C    24.84000015  10.82999992  50.93999863
H    25.33432007  10.05628014  51.52745438
H    20.00999832  11.00999928  52.88999939
H    19.37999916   8.55000019  48.63999939
H    21.68000031   8.89000034  48.02000046
H    23.97000122   9.82999992  48.54999924
H    22.67000008  11.14999962  52.32999802
H    14.44000053   9.84000015  52.29999924
H    25.43000031  11.07999992  50.05000305
H    24.79000092  11.69000053  51.62000275
S    13.89999962   8.19000053  47.75000000
C    11.23000050   8.00000000  48.54000092
C    12.50000000   8.46000004  48.79000092
C    12.79000092   9.17000008  50.00000000
C    11.77000046   9.42000008  50.90000153
C    10.44999981   8.98999977  50.65000153
C     9.39999962   9.30999947  51.56000137
C     8.10000038   9.11000061  51.16000366
C     7.78999996   8.45000076  49.93999863
C     8.80000019   8.06999969  49.09000015
C    10.15999985   8.27999973  49.43000031
C    14.23999977   9.28999996  50.13999939
C    14.96999931   8.78999996  49.02999878
C    16.35000038   8.59000015  49.12000275
C     6.34999990   8.11999989  49.61999893
H     5.94431162   8.84596825  48.91538239
H    11.05999947   7.57000017  47.55000305
H    12.10999966   9.72999954  51.88999939
H     9.59999943   9.70000076  52.56000137
H     7.31999969   9.35999966  51.86999893
H     8.53999996   7.60999966  48.13999939
H    16.87999916   8.21000004  48.25000000
H     5.78000021   8.00000000  50.54999924
H     6.26999950   7.17999983  49.06000137
