96

S    16.72999954   9.59000015  58.52000427
C    19.31999969   9.86999989  57.70999908
C    18.09999847   9.31999969  57.42000198
C    17.72999954   8.78000069  56.13999939
C    18.71999931   8.80999947  55.18000031
C    20.03999901   9.23999977  55.45999908
C    21.14000130   9.11999989  54.56999969
C    22.42000198   9.47000027  54.89999771
C    22.75000000  10.06000042  56.14999771
C    21.70000076  10.21000004  57.02999878
C    20.36000061   9.81000042  56.73999786
C    16.28999901   8.67000008  56.00000000
C    15.65000057   9.06999969  57.19999695
C    14.27999973   9.11000061  57.38999939
C    24.13999939  10.51000023  56.52999878
H    24.71611023   9.79163933  57.11322403
H    19.47000122  10.29000092  58.69999695
H    18.36000061   8.39999962  54.23999786
H    20.89999962   8.75000000  53.56999969
H    23.23999786   9.26999950  54.20999908
H    21.84000015  10.54999924  58.04999924
H    13.78000069   9.43000031  58.29999924
H    24.70000076  10.76000023  55.61999893
H    24.09000015  11.46000004  57.06999969
S    12.89000034   7.78999996  53.92000198
C    10.26999950   7.55999994  54.85000229
C    11.54999924   8.01999950  55.06999969
C    11.97000027   8.60999966  56.30000305
C    11.00000000   8.76000023  57.28000259
C     9.63999939   8.43999958  57.08000183
C     8.60999966   8.76999950  58.01000214
C     7.30000019   8.38999939  57.77999878
C     6.94000006   7.73999977  56.58000183
C     7.96000004   7.30000019  55.75000000
C     9.30999947   7.71000004  55.87999725
C    13.42000008   8.71000004  56.35000229
C    14.06000042   8.25000000  55.17000198
C    15.44000053   8.25000000  54.97000122
C     5.50000000   7.51999950  56.18999863
H     5.20838737   8.06766224  55.29382324
H     9.82999992   7.30000019  53.88999939
H    11.32999992   9.26999950  58.16999817
H     8.85999966   9.28999996  58.92000198
H     6.51000023   8.76999950  58.41999817
H     7.68000031   6.76000023  54.85000229
H    15.88000107   7.92000008  54.02999878
H     4.75000000   7.53000021  57.00000000
H     5.73000002   6.48000002  55.93999863
S    13.17000008   5.75999975  50.90000153
C    10.51000023   5.46000004  51.65000153
C    11.84000015   5.19000006  51.91999817
C    12.28000069   4.46999979  53.08000183
C    11.33999920   3.91000009  53.93000031
C     9.96000004   4.05000019  53.61999893
C     8.89999962   3.63000011  54.47999954
C     7.57000017   3.86999989  54.22999954
C     7.22000027   4.57999992  53.06000137
C     8.18000031   5.03000021  52.18000031
C     9.55000019   4.84000015  52.49000168
C    13.73000050   4.59000015  53.15000153
C    14.37999916   5.26999998  52.09999847
C    15.72000027   5.63000011  52.02999878
C     5.73999977   4.84000015  52.88999939
H     5.38521242   4.47811699  51.92497635
H    10.26000023   6.05000019  50.77000046
H    11.57999992   3.37000012  54.84000397
H     9.13999939   3.08999991  55.38999939
H     6.83000040   3.47000003  54.93000031
H     7.92000008   5.61999989  51.30000305
H    16.10999870   6.25000000  51.23000336
H     5.12000036   4.39000034  53.68000031
H     5.72000027   5.92999983  52.98999786
S    17.02999878   4.19999981  55.45999908
C    19.69000053   4.90000010  54.95999908
C    18.36000061   5.03000021  54.61999893
C    17.93000031   5.56999969  53.36999893
C    18.88000107   6.25000000  52.62000275
C    20.25000000   6.14000034  52.93000031
C    21.25999832   6.40999985  51.95999908
C    22.57999802   6.17000008  52.25999832
C    23.03999901   5.56999969  53.46000290
C    22.06999969   5.26000023  54.38999939
C    20.69000053   5.42999983  54.10999680
C    16.53000069   5.26000023  53.11999893
C    15.90000057   4.46999979  54.12000275
C    14.53999996   4.19999981  54.22000122
C    24.51999855   5.32999992  53.61999893
H    24.98147774   5.76307869  54.50745773
H    19.93000031   4.26999998  55.81999969
H    18.55999947   6.48000002  51.60999680
H    20.94000053   6.61000013  50.94999695
H    23.38999939   6.57000017  51.65000153
H    22.20999908   4.67000008  55.28999710
H    14.11999893   3.63999987  55.05000305
H    24.87999916   5.86000013  52.72999573
H    24.77000046   4.26999998  53.47999954
