96

S    17.27000046   8.85999966  58.97999573
C    19.93999863   9.42000008  58.29000092
C    18.68999863   8.96000004  57.91999817
C    18.36000061   8.69000053  56.56000137
C    19.40000153   8.65999985  55.63999939
C    20.71000099   9.09000015  55.96000290
C    21.75000000   9.15000057  55.00000000
C    23.02000046   9.57999992  55.31000137
C    23.23999786   9.92999935  56.65999985
C    22.30999947   9.81999969  57.67000198
C    20.97999954   9.44000053  57.32999802
C    16.95999908   8.34999943  56.38000107
C    16.22999954   8.51000023  57.57999802
C    14.85999966   8.71000004  57.63999939
C    24.67000008  10.21999931  57.08000183
H    24.98258400   9.69428921  57.98223114
H    20.12000084   9.92999935  59.22999954
H    19.22000122   8.34999943  54.61000061
H    21.42000008   8.93000031  53.99000168
H    23.88000107   9.68000031  54.65000153
H    22.62000084   9.94000053  58.70999908
H    14.44000053   9.06999969  58.57999802
H    25.30999947   9.92000008  56.24000168
H    24.77000046  11.31999969  57.09999847
S    13.71999931   8.19999981  53.89999771
C    11.00000000   8.14000034  54.52000046
C    12.28999996   8.38999939  54.93999863
C    12.69000053   8.67999935  56.27999878
C    11.69000053   8.64999962  57.23999786
C    10.34999943   8.32999992  56.90000153
C     9.42000008   8.07999992  57.94000244
C     8.10000038   7.82999992  57.63999939
C     7.72000027   7.55999994  56.30000305
C     8.64999962   7.69999981  55.28999710
C    10.00000000   8.09000015  55.52000046
C    14.13000011   8.63000011  56.44000244
C    14.84000015   8.25000000  55.27000046
C    16.21999931   8.07999992  55.21999741
C     6.25000000   7.30999994  56.07999802
H     5.81581450   7.95772028  55.31839371
H    10.85999966   7.72000027  53.53000259
H    12.05000019   8.67999935  58.26000214
H     9.59999943   8.52999973  58.92000198
H     7.37999964   7.82999992  58.44999695
H     8.38000011   7.40000010  54.27999878
H    16.77999878   7.92000008  54.31000137
H     5.78000021   7.32999992  57.08000183
H     6.01999998   6.28000021  55.77999878
S    17.06999969  10.00000000  52.43999863
C    19.80999947  10.07999992  51.77999878
C    18.52000046   9.68999958  51.46999741
C    18.20999908   9.30999947  50.12000275
C    19.19999886   9.13000011  49.16999817
C    20.52000046   9.52999973  49.50000000
C    21.57999992   9.32999992  48.57999802
C    22.88000107   9.68999958  48.82999802
C    23.16999817  10.38000011  50.04000092
C    22.17000008  10.50000000  50.98999786
C    20.84000015  10.03999901  50.80999756
C    16.77000046   9.23999977  49.94999695
C    16.00000000   9.67000008  51.05999756
C    14.60999966   9.72000027  51.09000397
C    24.53000069  10.98000050  50.27999878
H    25.13971710  10.27102661  50.84008789
H    19.96000099  10.80999947  52.56999969
H    18.97999954   8.64999962  48.22000122
H    21.31000137   8.92000008  47.61000061
H    23.65999985   9.56999969  48.09000015
H    22.42000198  10.93000031  51.95000076
H    14.06000042  10.11999989  51.93000031
H    25.05000114  11.17000008  49.33000183
H    24.36000061  11.96000004  50.72999954
S    13.55000019   8.78000069  47.36999893
C    10.82999992   8.93000031  47.97000122
C    12.13000107   9.13000011  48.36999893
C    12.50000000   9.42000008  49.72999954
C    11.46999931   9.52999973  50.63999939
C    10.13000011   9.19000053  50.31000137
C     9.19999981   9.13999939  51.38000107
C     7.90000010   8.88000011  51.04000092
C     7.53000021   8.53999996  49.71000290
C     8.45000076   8.52999973  48.68999863
C     9.78999996   8.97000027  48.93000031
C    13.94000053   9.46000004  49.87999725
C    14.65999985   9.17000008  48.69999695
C    16.03999901   9.00000000  48.77999878
C     6.09000015   8.31999969  49.31000137
H     5.86327744   8.74510574  48.33225632
H    10.62999916   8.43999958  47.02000046
H    11.65999985   9.81999969  51.66999817
H     9.52000046   9.47000027  52.36999893
H     7.20000029   8.86999989  51.86999893
H     8.17000008   8.17000008  47.70000076
H    16.55999947   8.59000015  47.90999985
H     5.46000004   8.73000050  50.10000229
H     5.92999983   7.23000002  49.31999969
