96

S    17.15999985   9.55999947  58.57999802
C    19.88000107   9.38000011  57.91999817
C    18.55999947   9.22000027  57.54000092
C    18.09999847   8.80999947  56.25000000
C    19.06999969   8.65999985  55.27999878
C    20.45000076   8.89000034  55.54000092
C    21.48999977   8.76999950  54.56999969
C    22.77000046   9.15000057  54.87999725
C    23.15999985   9.61999989  56.16000366
C    22.18000031   9.64999962  57.11999893
C    20.82999992   9.27999973  56.86999893
C    16.65999985   8.61999989  56.14999771
C    16.01000023   9.11999989  57.29999924
C    14.63000107   9.19000053  57.38999939
C    24.54000092  10.14000034  56.51000214
H    24.99333191   9.63000107  57.35999680
H    20.07999802   9.78999996  58.89999771
H    18.71999931   8.27000046  54.33000183
H    21.21000099   8.26000023  53.64999771
H    23.62999916   9.02999973  54.22000122
H    22.47999954  10.00000000  58.11000061
H    14.17000008   9.52999973  58.31999969
H    25.29000092  10.07999992  55.72000122
H    24.34999847  11.19999981  56.69000244
S    13.45000076   7.88000011  53.80000305
C    10.80000019   8.01000023  54.50000000
C    12.09000015   8.30000019  54.85000229
C    12.41000080   8.86999989  56.12999725
C    11.39000034   9.04999924  57.04999924
C    10.06000042   8.76000023  56.69000244
C     9.02000046   8.71999931  57.67000198
C     7.69999981   8.43999958  57.41000366
C     7.36000013   8.06999969  56.07999802
C     8.36999989   7.86000013  55.17000198
C     9.72000027   8.26000023  55.38000107
C    13.86000061   8.88000011  56.25999832
C    14.52000046   8.32999992  55.13999939
C    15.90000057   8.14999962  55.06999969
C     5.98999977   7.50000000  55.81999969
H     5.53559256   7.95440769  54.93958664
H    10.52000046   7.53999996  53.55999756
H    11.64999962   9.30999947  58.08000183
H     9.39000034   8.97000027  58.66000366
H     6.94000006   8.28999996  58.16999817
H     8.11999989   7.44000006  54.20000076
H    16.42000008   7.95000029  54.13999939
H     5.46000004   7.82000017  56.72999954
H     6.01000023   6.40999985  55.77999878
S    17.02000046  10.03999901  52.49000168
C    19.77000046   9.81999969  51.84999847
C    18.45000076   9.59000015  51.53999710
C    18.07999992   9.07999992  50.25000000
C    19.06999969   8.76000023  49.34000015
C    20.42000008   8.96000004  49.68999863
C    21.45000076   8.75000000  48.72000122
C    22.72999954   9.11999989  49.03999710
C    23.12999916   9.75000000  50.25000000
C    22.13999939  10.05000019  51.16000366
C    20.81000137   9.57999992  50.91999817
C    16.62999916   9.03999996  50.13999939
C    15.86999989   9.55000019  51.23000336
C    14.48999977   9.72999954  51.23000336
C    24.54000092  10.25000000  50.45999908
H    25.08744049   9.72388840  51.24205780
H    20.05000114  10.26999950  52.80000305
H    18.70000076   8.63000011  48.33000183
H    21.22999954   8.36000061  47.72999573
H    23.42000008   9.02000046  48.20000076
H    22.32000160  10.59000015  52.08000183
H    14.06000042  10.00000000  52.18999863
H    25.10999870  10.11000061  49.54000092
H    24.51999855  11.31999969  50.70999908
S    13.35999966   8.27000046  47.74000168
C    10.65999985   8.02999973  48.53000259
C    11.95000076   8.42000008  48.80000305
C    12.35999966   8.89999962  50.08999634
C    11.36999989   9.01000023  51.04999924
C    10.03000069   8.63000011  50.79999924
C     9.03999996   8.97999954  51.75000000
C     7.69999981   8.82000065  51.47999573
C     7.26000023   8.30999947  50.22999573
C     8.23999977   7.90999985  49.34000015
C     9.61999989   8.22000027  49.47999954
C    13.78000069   9.19000053  50.14999771
C    14.50000000   8.67999935  49.03999710
C    15.88999939   8.67000008  49.01000214
C     5.80999947   8.26000023  49.79999924
H     5.55392218   8.60143661  48.79703140
H    10.50000000   7.65999985  47.52999878
H    11.63000011   9.56999969  51.95000076
H     9.35000038   9.50000000  52.64999771
H     7.02000046   9.19000053  52.23999786
H     7.94000053   7.53999996  48.36000061
H    16.40999985   8.30000019  48.13000107
H     5.26000023   8.73999977  50.61000061
H     5.44000053   7.25000000  49.95999908
