96

S    16.60000038   9.68999958  58.61999893
C    19.29999924   9.70000076  58.04000092
C    18.04000092   9.27999973  57.67000198
C    17.68000031   8.73999977  56.38999939
C    18.72999954   8.56999969  55.51000214
C    20.00000000   9.13000011  55.77999878
C    20.97999954   9.01000023  54.75000000
C    22.26000023   9.36999989  55.07999802
C    22.65000153   9.85000038  56.36000061
C    21.68999863  10.03000069  57.31999969
C    20.34000015   9.65999985  57.06999969
C    16.23999977   8.63000011  56.24000168
C    15.50000000   9.11000061  57.35000229
C    14.11000061   9.22000027  57.32999802
C    24.11000061  10.21999931  56.56000137
H    24.56482315   9.54487133  57.28487396
H    19.50000000  10.40999985  58.83999634
H    18.60999870   8.15999985  54.51000214
H    20.66999817   8.47999954  53.85000229
H    23.01000214   9.26000023  54.31000137
H    21.98999786  10.47999954  58.26000214
H    13.66000080   9.52000046  58.27000046
H    24.64999962  10.22999954  55.61000061
H    24.25000000  11.21999931  56.97000122
S    13.07000065   8.09000015  53.68000031
C    10.39000034   7.79999971  54.45999908
C    11.63000011   8.34999943  54.68999863
C    11.96000004   8.89999962  55.97000122
C    11.00999928   9.11000061  56.95000076
C     9.72000027   8.57999992  56.70000076
C     8.63000011   8.73000050  57.61000061
C     7.35000038   8.30000019  57.38999939
C     7.09000015   7.51999950  56.23000336
C     8.10000038   7.35000038  55.31000137
C     9.40999985   7.88999987  55.47999954
C    13.40999985   8.96000004  56.14999771
C    14.14999962   8.48999977  55.02999878
C    15.52999973   8.31999969  55.07999802
C     5.73000002   7.07000017  55.75000000
H     5.11268330   7.79375124  55.21783066
H    10.10000038   7.30999994  53.54000092
H    11.18999958   9.61999989  57.88999939
H     8.92000008   9.30000019  58.48999786
H     6.57000017   8.67999935  58.04000092
H     7.96999979   6.97000027  54.29999924
H    16.13999939   8.00000000  54.23999786
H     5.26999998   6.74000025  56.70000076
H     5.82999992   6.17999983  55.12000275
S    13.55999947   6.07999992  50.89000320
C    10.93999958   5.18000031  51.52000046
C    12.28000069   5.26000023  51.81000137
C    12.82999992   4.65000010  52.97999954
C    11.95000076   4.23000002  53.96999741
C    10.54999924   4.33999968  53.81000137
C     9.53999996   3.86000013  54.69999695
C     8.22000027   3.65000010  54.36000061
C     7.73999977   4.02999973  53.08000183
C     8.69000053   4.44000006  52.16999817
C    10.06000042   4.65000010  52.50000000
C    14.27000046   4.81999969  53.11000061
C    14.80999947   5.58000040  52.04000092
C    16.17000008   5.84999990  52.00000000
C     6.30000019   3.81999993  52.68000031
H     5.93820858   4.61452198  52.02735901
H    10.69000053   5.46000004  50.50000000
H    12.36999989   3.68999982  54.80999756
H     9.82999992   3.42000008  55.63999939
H     7.46000004   3.40999985  55.07999802
H     8.39999962   4.72000027  51.16000366
H    16.55999947   6.17000008  51.04000092
H     6.19000006   2.77999997  52.35000229
H     5.66999960   3.91999984  53.57999802
S    17.56999969   4.42000008  55.41999817
C    20.22999954   4.80999994  54.69999695
C    18.89999962   4.88000011  54.34000015
C    18.44000053   5.58000040  53.18000031
C    19.34000015   6.24000025  52.36000061
C    20.72000122   6.12999964  52.64999771
C    21.73000145   6.80999994  51.90000153
C    23.05999947   6.70000029  52.22000122
C    23.46999931   5.98999977  53.36999893
C    22.52000046   5.44000053  54.19000244
C    21.15999985   5.36000013  53.77999878
C    17.00000000   5.44000053  53.04999924
C    16.38000107   4.82999992  54.16999817
C    15.05000019   4.42000008  54.20999908
C    24.94999886   5.71000004  53.54999924
H    25.35593033   6.00198460  54.51853561
H    20.62000084   4.42999983  55.63999939
H    19.10000038   6.78999996  51.45999908
H    21.38000107   7.42999983  51.07999802
H    23.71000099   7.20000029  51.50000000
H    22.69000053   5.10999966  55.21999741
H    14.65000057   3.93000007  55.08999634
H    25.48999977   6.26999950  52.77999878
H    25.29000092   4.67999983  53.34999847
