96

S    16.67000008   9.43000031  58.66000366
C    19.37000084   9.63999939  58.02000046
C    18.12000084   9.19999981  57.65999603
C    17.85000038   8.64999962  56.37000275
C    18.89000130   8.31999969  55.52000046
C    20.19000053   8.75000000  55.86999893
C    21.31000137   8.71999931  54.99000168
C    22.60000038   9.02000046  55.34000015
C    22.82999992   9.57999992  56.62000275
C    21.73999977   9.96000004  57.36999893
C    20.43999863   9.44000053  57.11000061
C    16.42000008   8.50000000  56.14999771
C    15.67999935   8.92000008  57.28000259
C    14.32000065   9.15999985  57.16999817
C    24.18000031  10.11999989  57.04999924
H    24.62942886   9.52076149  57.84185028
H    19.51000023  10.11999989  58.99000168
H    18.75000000   7.94000053  54.51000214
H    21.09000015   8.47999954  53.95000076
H    23.38000107   8.80999947  54.61000061
H    21.84999847  10.52000046  58.29999924
H    13.71000099   9.59999943  57.95999908
H    24.84999847  10.24000072  56.18000031
H    24.11000061  11.07999992  57.56999969
S    13.22000027   7.46000004  53.75999832
C    10.52000046   7.40000010  54.56999969
C    11.80999947   7.86000013  54.75000000
C    12.17000008   8.43999958  56.00999832
C    11.19999981   8.78000069  56.93000031
C     9.88000011   8.28999996  56.77999878
C     8.86999989   8.51000023  57.75000000
C     7.55000019   8.23000050  57.50000000
C     7.23000002   7.60999966  56.25999832
C     8.14999962   7.36000013  55.27999878
C     9.52000046   7.68000031  55.52999878
C    13.61999989   8.56999969  56.11000061
C    14.34000015   8.00000000  55.02999878
C    15.72999954   8.10999966  55.00000000
C     5.80999947   7.07999992  56.17000198
H     5.19200230   7.79744577  55.63014221
H    10.27999973   6.94000006  53.61000061
H    11.46999931   9.32999992  57.83000183
H     9.19999981   8.93999958  58.69999695
H     6.71999979   8.26000023  58.20000076
H     7.96000004   6.70000029  54.43999863
H    16.26000023   7.88000011  54.06999969
H     5.40999985   6.74000025  57.12999725
H     5.80999947   6.15000010  55.59000015
S    17.54999924  10.03000069  52.70000076
C    20.20999908   9.96999931  52.02999878
C    18.94000053   9.57999992  51.68000031
C    18.57999992   9.03999996  50.40999985
C    19.56999969   8.92000008  49.45000076
C    20.88999939   9.32999992  49.75000000
C    21.87999916   9.28999996  48.72000122
C    23.15999985   9.71000004  48.96999741
C    23.46999931  10.25000000  50.25000000
C    22.52000046  10.39999962  51.25000000
C    21.22999954   9.82999992  51.04999924
C    17.13000107   9.11000061  50.28999710
C    16.40999985   9.51000023  51.44000244
C    15.01999950   9.56999969  51.50000000
C    24.92000198  10.54999924  50.54999924
H    25.36913109   9.92264271  51.31993866
H    20.29999924  10.51000023  52.97000122
H    19.27000046   8.65999985  48.43999863
H    21.77000046   8.82000065  47.75000000
H    23.97000122   9.59000015  48.26000214
H    22.76000023  10.85000038  52.21000290
H    14.57999992   9.88000011  52.44999695
H    25.55999947  10.38000011  49.68000031
H    24.97999954  11.61000061  50.80999756
S    13.82999992   8.30000019  48.00000000
C    11.17000008   7.95000029  48.81999969
C    12.42000008   8.46000004  49.06999969
C    12.81999969   9.09000015  50.30000305
C    11.84999943   9.21000004  51.27999878
C    10.52000046   8.78999996  51.05999756
C     9.43000031   8.94999981  51.95999908
C     8.19000053   8.38999939  51.73999786
C     7.94000053   7.68000031  50.52999878
C     8.86999989   7.69999981  49.52000046
C    10.19000053   8.13000011  49.82999802
C    14.26000023   9.26999950  50.37000275
C    14.98999977   8.89999962  49.20000076
C    16.36999893   8.85000038  49.13999939
C     6.50000000   7.42000008  50.15999603
H     6.05863047   8.01798534  49.36268234
H    10.97000027   7.36999989  47.91999817
H    12.17000008   9.68999958  52.19999695
H     9.71000004   9.44999981  52.88000107
H     7.40999985   8.53999996  52.48000336
H     8.76999950   7.46999979  48.46000290
H    16.92000008   8.42000008  48.29999924
H     5.93999958   7.44000006  51.11000061
H     6.39999962   6.39999962  49.75999832
