96

S    16.97000122   9.73999977  58.75000000
C    19.69000053   9.84000015  58.06999969
C    18.38999939   9.59000015  57.69000244
C    18.00000000   8.89000034  56.50000000
C    19.04999924   8.53999996  55.68000031
C    20.36999893   8.97000027  55.93000031
C    21.42999840   8.67000008  55.01999664
C    22.75000000   8.94999981  55.24000168
C    23.09000015   9.48999977  56.51000214
C    22.13999939   9.70000076  57.49000168
C    20.76000023   9.52000046  57.21000290
C    16.56999969   8.67000008  56.36000061
C    15.85999966   9.18000031  57.48000336
C    14.47999954   9.35999966  57.52999878
C    24.53000069   9.85000038  56.81000137
H    24.97858429   9.30885029  57.64308548
H    19.90999985  10.36999893  59.00000000
H    18.89999962   7.94000053  54.79000092
H    21.18000031   8.06999969  54.15999985
H    23.54000092   8.71999931  54.52999878
H    22.27999878   9.96999931  58.53000259
H    13.96999931   9.68999958  58.41999817
H    25.13000107   9.77999973  55.90000153
H    24.37999916  10.88000107  57.18000031
S    13.34000015   7.46999979  54.27000046
C    10.64000034   7.62000036  54.84000397
C    11.90999985   7.99000025  55.19000244
C    12.25000000   8.65999985  56.40999603
C    11.21000099   9.11000061  57.19999695
C     9.86999989   8.80000019  56.86000061
C     8.86999989   9.04999924  57.84000015
C     7.55999994   8.73999977  57.56999969
C     7.27999973   7.97999954  56.39999771
C     8.25000000   7.50999975  55.52999878
C     9.56999969   8.00000000  55.70000076
C    13.68999958   8.85000038  56.49000168
C    14.42999935   8.22000027  55.45999908
C    15.80999947   8.13000011  55.31999969
C     5.86000013   7.53000021  56.14999771
H     5.30511856   8.33386707  55.66625595
H    10.44999981   7.00999975  53.95999908
H    11.38000011   9.67000008  58.11999893
H     9.22000027   9.48000050  58.76999664
H     6.76999998   9.06000042  58.25000000
H     8.02999973   6.85999966  54.68999863
H    16.26000023   7.68000031  54.43999863
H     5.44000053   7.30000019  57.14000320
H     5.71000004   6.65000010  55.51000214
S    16.92000008   9.77000046  52.68000031
C    19.68000031   9.77000046  52.11000061
C    18.38999939   9.44000053  51.73999786
C    18.01000023   9.02000046  50.43000031
C    19.01000023   8.82999992  49.47999954
C    20.36000061   9.00000000  49.86000061
C    21.45999908   8.93999958  48.95000076
C    22.73999977   9.23999977  49.34000015
C    23.06999969   9.76000023  50.61999893
C    21.97999954  10.10000038  51.39999771
C    20.69000053   9.56999969  51.13999939
C    16.59000015   8.89999962  50.17000198
C    15.86999989   9.27999973  51.32999802
C    14.48999977   9.32999992  51.45999908
C    24.44000053  10.36999893  50.84000015
H    25.06414795   9.71038914  51.44287109
H    19.82999992  10.21000004  53.09000015
H    18.78999901   8.67999935  48.43000031
H    21.21999931   8.56999969  47.95999908
H    23.52000046   8.90999985  48.66000366
H    22.13000107  10.75000000  52.25999832
H    13.96000004   9.43000031  52.39999771
H    24.90999985  10.71000004  49.92000198
H    24.30000114  11.35000038  51.30000305
S    13.30999947   8.30999947  47.84999847
C    10.59000015   8.32999992  48.57999802
C    11.90999985   8.43000031  48.94000244
C    12.30000019   8.82000065  50.26000214
C    11.31000042   8.96000004  51.20999908
C     9.94999981   8.69999981  50.91999817
C     9.00000000   8.84000015  51.97000122
C     7.67000008   8.65999985  51.66999817
C     7.22000027   8.53999996  50.31999969
C     8.17000008   8.38999939  49.34000015
C     9.56999969   8.43000031  49.55999756
C    13.73999977   9.06999969  50.31000137
C    14.46000004   8.65999985  49.15999985
C    15.84000015   8.59000015  49.02000046
C     5.79999971   8.19000053  49.93999863
H     5.36090899   8.96903229  49.31677628
H    10.42000008   8.15999985  47.51999664
H    11.64999962   9.02999973  52.23999786
H     9.46000004   9.02999973  52.93000031
H     6.91999960   8.53999996  52.44999695
H     7.82000017   8.03999996  48.36999893
H    16.32999992   8.25000000  48.11000061
H     5.27999973   8.01999950  50.87999725
H     5.84999990   7.25000000  49.38000107
