96

S    17.00000000   9.19000053  58.90999603
C    19.72999954   9.23999977  58.15999985
C    18.40999985   9.03999996  57.84000015
C    18.09999847   8.52999973  56.53999710
C    19.11000061   8.19999981  55.65999985
C    20.48000145   8.31999969  55.97999954
C    21.57999992   7.92999983  55.15999603
C    22.86999893   8.28999996  55.44000244
C    23.13999939   9.06000042  56.59999847
C    22.11000061   9.39000034  57.44999695
C    20.76000023   8.98999977  57.22000122
C    16.65999985   8.39999962  56.38000107
C    15.95000076   8.85000038  57.52999878
C    14.56999969   8.96000004  57.52999878
C    24.56999969   9.48000050  56.86999893
H    24.91929436   9.16634846  57.85372543
H    20.02000046   9.50000000  59.18000031
H    18.78000069   7.90999985  54.66999817
H    21.47000122   7.40000010  54.20999908
H    23.72999954   7.86000013  54.93000031
H    22.25000000  10.01000023  58.33000183
H    14.00000000   9.27999973  58.40000153
H    25.22000122   9.04999924  56.10000229
H    24.56999969  10.57000065  56.77000046
S    13.50999928   7.44000006  53.99000168
C    10.82999992   7.17000008  54.78000259
C    12.09000015   7.67000008  55.02999878
C    12.43000031   8.27999973  56.27999878
C    11.47999954   8.46000004  57.27000427
C    10.14000034   8.10999966  56.98999786
C     9.10000038   8.10000038  57.97000122
C     7.82000017   7.73000002  57.63000107
C     7.49000025   7.17999983  56.37000275
C     8.56000042   6.83000040  55.56999969
C     9.85000038   7.40000010  55.77999878
C    13.86999989   8.48999977  56.40999603
C    14.57999992   7.96000004  55.30000305
C    15.97000027   7.85000038  55.28999710
C     6.11000013   6.61999989  56.09000397
H     5.52903509   7.40642786  55.60822678
H    10.65999985   6.70000029  53.81999969
H    11.78999996   8.85999966  58.22999954
H     9.31999969   8.48999977  58.95999908
H     7.05999947   7.88999987  58.39000320
H     8.34000015   6.03999996  54.86000061
H    16.53000069   7.36999989  54.50000000
H     5.59999990   6.47000027  57.04999924
H     6.30000019   5.77000046  55.44000244
S    13.43999958   5.22000027  51.00000000
C    10.80999947   4.75000000  51.58000183
C    12.10999966   4.55000019  51.97000122
C    12.48999977   4.05000019  53.26000214
C    11.51999950   3.65999985  54.15999985
C    10.15999985   3.78999996  53.77999878
C     9.11000061   3.30999994  54.59999847
C     7.78999996   3.31999993  54.19000244
C     7.46999979   3.86999989  52.91999817
C     8.45000076   4.30999994  52.05999756
C     9.81000042   4.26000023  52.47000122
C    13.94000053   4.13999987  53.36000061
C    14.60000038   4.74000025  52.25999832
C    15.92000008   5.17000008  52.29999924
C     6.01999998   4.09999990  52.56000137
H     5.78422165   3.75704956  51.55258179
H    10.51000023   5.19999981  50.63999939
H    11.80999947   3.05000019  55.01999664
H     9.47000027   2.82000017  55.51000214
H     6.98999977   3.00000000  54.85000229
H     8.21000004   5.00000000  51.25999832
H    16.46999931   5.75000000  51.56000137
H     5.27999973   3.55999994  53.16999817
H     5.72000027   5.14999962  52.65999603
S    17.18000031   3.82999992  55.86999893
C    19.85000038   4.18000031  55.10000229
C    18.51000023   4.41000032  54.85000229
C    18.05999947   5.09999990  53.68000031
C    19.03000069   5.66999960  52.88000107
C    20.40999985   5.42999983  53.11999893
C    21.35000038   6.02999973  52.22999954
C    22.69000053   5.89999962  52.51999664
C    23.13999939   5.19000006  53.66000366
C    22.26000023   4.61000013  54.54000092
C    20.86999893   4.69999981  54.27000046
C    16.63999939   4.88000011  53.47000122
C    16.04999924   4.15000010  54.52999878
C    14.73999977   3.71000004  54.43000031
C    24.63000107   4.98000002  53.82999802
H    25.00789833   5.20103407  54.82821655
H    20.23999977   3.61000013  55.93999863
H    18.68000031   6.25000000  52.02999878
H    20.93000031   6.63999987  51.43000031
H    23.31000137   6.19999981  51.68000031
H    22.52000046   3.95000005  55.37000275
H    14.44000053   3.09999990  55.27000046
H    25.13999939   5.73999977  53.22000122
H    24.96000099   4.00999975  53.43000031
