96

S    16.72000122   9.72999954  58.74000168
C    19.47999954   9.77000046  58.09999847
C    18.19000053   9.40999985  57.78999710
C    17.87999916   8.69000053  56.59000015
C    18.89000130   8.31999969  55.72000122
C    20.22000122   8.73999977  55.90999985
C    21.30000114   8.67000008  54.99000168
C    22.49000168   9.30999947  55.26000214
C    22.77000046   9.80000019  56.56000137
C    21.80999947   9.73999977  57.54000092
C    20.48000145   9.38000011  57.16999817
C    16.45000076   8.56999969  56.36000061
C    15.70000076   9.19999981  57.37999725
C    14.30999947   9.22000027  57.42000198
C    24.18000031  10.24000072  56.90999985
H    24.73530769   9.46399498  57.43682861
H    19.65999985  10.52000046  58.87000275
H    18.60000038   7.77999973  54.80999756
H    20.97999954   8.28999996  54.02999878
H    23.21000099   9.40999985  54.45000076
H    22.11999893  10.15999985  58.48999786
H    13.81000042   9.77999973  58.20999908
H    24.73999977  10.57000065  56.03000259
H    24.03000069  11.10999966  57.56999969
S    13.22999954   7.53000021  54.00000000
C    10.53999996   7.31999969  54.79000092
C    11.84000015   7.67000008  55.08999634
C    12.20000076   8.26000023  56.33999634
C    11.21000099   8.43000031  57.29000092
C     9.85999966   8.05999947  57.09000015
C     8.85999966   8.17000008  58.09000015
C     7.60999966   7.69999981  57.77999878
C     7.20000029   7.31999969  56.46999741
C     8.19999981   7.16000032  55.52999878
C     9.55999947   7.50000000  55.79000092
C    13.63000011   8.52999973  56.40999603
C    14.34000015   8.05000019  55.27999878
C    15.72999954   8.06999969  55.26000214
C     5.75999975   7.02000046  56.16000366
H     5.28403091   7.68067408  55.43539047
H    10.21000004   6.98999977  53.80000305
H    11.51999950   8.96000004  58.18999863
H     8.97000027   8.63000011  59.06999969
H     6.90999985   7.59999990  58.60000229
H     8.05000019   6.76999998  54.52999878
H    16.29999924   7.72000027  54.40000153
H     5.32999992   7.11000013  57.16999817
H     5.84999990   5.98999977  55.79999924
S    17.09000015   9.51000023  52.80000305
C    19.75000000   9.92999935  52.02999878
C    18.45999908   9.61999989  51.66999817
C    18.05999947   9.21000004  50.35999680
C    19.01000023   9.26000023  49.36000061
C    20.38999939   9.39999962  49.65999985
C    21.44000053   9.26000023  48.70999908
C    22.73999977   9.52000046  49.08000183
C    23.11000061   9.81999969  50.41999817
C    22.10000038   9.86999989  51.35000229
C    20.72999954   9.71000004  51.03000259
C    16.63999939   8.86999989  50.27999878
C    15.95999908   9.03999996  51.51000214
C    14.59000015   9.26000023  51.52999878
C    24.54999924  10.11000061  50.76000214
H    25.02637672   9.42032242  51.45678711
H    20.10999870  10.14000034  53.02999878
H    18.72999954   9.09000015  48.33000183
H    21.24000168   9.23999977  47.63999939
H    23.36000061   9.61000061  48.18999863
H    22.29000092  10.07999992  52.39999771
H    14.06000042   9.47000027  52.44999695
H    25.20999908  10.14999962  49.87999725
H    24.56999969  11.16000080  51.09000397
S    13.40999985   8.56000042  47.76000214
C    10.76000023   8.22000027  48.56999969
C    12.03999996   8.61999989  48.88000107
C    12.42000008   9.01000023  50.20999908
C    11.46999931   8.89999962  51.20999908
C    10.17000008   8.40999985  50.91999817
C     9.19999981   8.43000031  51.95999908
C     7.86999989   8.22000027  51.66999817
C     7.48000050   8.06999969  50.31000137
C     8.38000011   7.96000004  49.27999878
C     9.76000023   8.15999985  49.55999756
C    13.86000061   9.17000008  50.34000015
C    14.51000023   8.89999962  49.10999680
C    15.90000057   8.80000019  49.09999847
C     6.02999973   7.73000002  50.01999664
H     5.68023396   8.23680305  49.12060165
H    10.54999924   7.88000011  47.56000137
H    11.71000004   9.17000008  52.22999954
H     9.51000023   8.64999962  52.97999954
H     7.11000013   8.10999966  52.43000031
H     8.17000008   7.77999973  48.22999954
H    16.53000069   8.76000023  48.20999908
H     5.32999992   7.96999979  50.83000183
H     5.95000029   6.63999987  49.95999908
