96

S    16.61000061   9.34000015  58.90999603
C    19.34000015   9.38000011  58.26000214
C    18.04999924   9.06000042  57.90999985
C    17.65999985   8.47000027  56.65999985
C    18.64999962   8.14999962  55.75000000
C    20.00000000   8.43000031  56.04999924
C    21.05999947   8.23000050  55.12000275
C    22.36999893   8.50000000  55.43000031
C    22.65999985   9.04999924  56.70000076
C    21.68999863   9.39000034  57.62000275
C    20.35000038   9.02000046  57.31999969
C    16.21000099   8.36999989  56.55000305
C    15.46000004   8.76999950  57.68000031
C    14.09000015   8.94999981  57.57999802
C    24.04999924   9.52999973  57.02999878
H    24.52543449   8.92683601  57.80346680
H    19.65999985   9.77000046  59.22000122
H    18.35000038   7.82000017  54.75999832
H    20.76000023   8.10999966  54.08000183
H    23.02999878   8.42000008  54.56999969
H    21.93000031  10.01999950  58.47000122
H    13.48999977   9.44999981  58.33000183
H    24.68000031   9.38000011  56.13999939
H    24.00000000  10.62000084  57.19999695
S    13.19000053   7.82000017  53.89999771
C    10.43000031   7.76000023  54.38999939
C    11.69000053   8.10000038  54.81999969
C    11.97999954   8.60000038  56.11999893
C    10.88999939   8.64999962  56.97000122
C     9.56999969   8.27000046  56.63999939
C     8.47999954   8.47000027  57.52999878
C     7.20000029   8.22000027  57.08000183
C     6.96000004   7.63000011  55.80999756
C     8.01999950   7.40000010  54.95999908
C     9.32999992   7.82999992  55.28999710
C    13.40999985   8.64999962  56.38999939
C    14.21000004   8.21000004  55.30000305
C    15.57999992   8.01999950  55.34999847
C     5.58000040   7.20000029  55.37000275
H     5.11913776   7.90901852  54.68225479
H    10.22999954   7.30000019  53.41999817
H    11.10999966   8.96000004  57.98999786
H     8.52000046   8.76000023  58.56999969
H     6.37000036   8.27000046  57.77999878
H     7.82999992   6.89000034  54.02000046
H    16.03999901   7.63000011  54.43999863
H     5.05999994   7.17999983  56.32999802
H     5.69000006   6.15000010  55.07999802
S    13.66000080   5.47999954  50.96000290
C    10.95999908   5.07000017  51.65000153
C    12.28999996   4.99000025  51.97999954
C    12.71000004   4.36999989  53.20000076
C    11.78999996   3.89999986  54.12000275
C    10.43000031   4.09999990  53.80000305
C     9.42000008   3.58000016  54.65999985
C     8.07999992   3.61999989  54.36999893
C     7.63999987   4.30000019  53.20999908
C     8.56000042   4.86000013  52.35000229
C     9.96000004   4.72000027  52.58999634
C    14.14000034   4.57999992  53.39000320
C    14.77000046   5.27999973  52.32999802
C    16.14999962   5.47999954  52.30999756
C     6.21000004   4.13000011  52.75000000
H     6.08883953   3.23198795  52.14419937
H    10.65999985   5.59000015  50.73999786
H    12.01000023   3.35000014  55.01999664
H     9.78999996   3.02999997  55.52999878
H     7.35000038   2.89999986  54.71000290
H     8.28999996   5.32999992  51.40999603
H    16.61000061   5.88999987  51.40999603
H     5.56999969   4.11999989  53.63999939
H     5.92000008   4.99000025  52.11999893
S    17.52000046   4.05000019  55.66999817
C    20.17999840   4.65000010  55.11000061
C    18.85000038   4.84000015  54.80999756
C    18.39999962   5.26000023  53.52000427
C    19.34999847   5.45000029  52.51999664
C    20.72000122   5.46999979  52.85999680
C    21.65999985   5.95000029  51.90000153
C    22.98999977   5.79999971  52.22999954
C    23.42000008   5.14999962  53.41999817
C    22.53000069   4.67999983  54.36000061
C    21.15999985   4.94999981  54.13000107
C    16.95000076   5.17000008  53.41999817
C    16.28000069   4.48000002  54.45999908
C    14.93000031   4.18000031  54.47000122
C    24.89999962   5.03000021  53.68999863
H    25.27584267   5.09382296  54.71115875
H    20.40999985   3.97000027  55.93000031
H    19.04999924   5.64000034  51.50000000
H    21.42000008   6.38999987  50.93999863
H    23.65999985   5.98999977  51.40999603
H    22.89999962   4.17000008  55.25000000
H    14.47000027   3.68999982  55.33000183
H    25.25000000   5.75999975  52.95000076
H    25.10999870   4.00999975  53.34000015
