96

S    16.50000000   9.81999969  58.75999832
C    19.19000053   9.89000034  58.13999939
C    17.94000053   9.39999962  57.80000305
C    17.60000038   8.84000015  56.52999878
C    18.60000038   8.69000053  55.59000015
C    19.88000107   9.19999981  55.87999725
C    20.88999939   9.09000015  54.87999725
C    22.20000076   9.38000011  55.19000244
C    22.46999931  10.05000019  56.40999603
C    21.52000046  10.27999973  57.37999725
C    20.20000076   9.81999969  57.14000320
C    16.17000008   8.69999981  56.31000137
C    15.47999954   9.26999950  57.41000366
C    14.09999943   9.38000011  57.48000336
C    23.92999840  10.31999969  56.69000244
H    24.33753395   9.97681236  57.64091492
H    19.37000084  10.47000027  59.03999710
H    18.38000107   7.97999954  54.79999924
H    20.65000153   8.38000011  54.09999847
H    22.93999863   8.94999981  54.51000214
H    21.78999901  10.62000084  58.36999893
H    13.73000050   9.72000027  58.43999863
H    24.43000031   9.84000015  55.84000015
H    24.20000076  11.38000011  56.58000183
S    12.94000053   8.13000011  53.85000229
C    10.21000004   8.23000050  54.59000015
C    11.54000092   8.36000061  54.92000198
C    11.94000053   8.63000011  56.25999832
C    11.00000000   8.57999992  57.28000259
C     9.61999989   8.42000008  57.01000214
C     8.55000019   8.36999989  57.94000244
C     7.28999996   7.92000008  57.60000229
C     6.94000006   7.69000006  56.25000000
C     7.90999985   7.88000011  55.28999710
C     9.25000000   8.22000027  55.63000107
C    13.36999989   8.85000038  56.39999771
C    14.04000092   8.47000027  55.20999908
C    15.42000008   8.38000011  55.17000198
C     5.55999994   7.21000004  55.84999847
H     5.14703512   7.87928772  55.09527206
H     9.84000015   7.88999987  53.62999725
H    11.31999969   8.51000023  58.31999969
H     8.88000011   8.47999954  58.96999741
H     6.54999971   7.72000027  58.37999725
H     7.73000002   7.62000036  54.25000000
H    15.93000031   8.23000050  54.22000122
H     4.86999989   7.05999947  56.68000031
H     5.73000002   6.15999985  55.58000183
S    13.96000004   5.96000004  51.23000336
C    11.26999950   5.42999983  51.84999847
C    12.61000061   5.23000002  52.11999893
C    13.05999947   4.63999987  53.34000015
C    12.09000015   4.13000011  54.18000031
C    10.71000004   4.25000000  53.86000061
C     9.68999958   3.76999998  54.72000122
C     8.34000015   3.84000015  54.43999863
C     7.90000010   4.51999998  53.27000046
C     8.85000038   5.09000015  52.44999695
C    10.24000072   4.98000002  52.71999741
C    14.48999977   4.80999994  53.54999924
C    15.11999989   5.50000000  52.49000168
C    16.45000076   5.91000032  52.54000092
C     6.42000008   4.67000008  53.01000214
H     6.11461115   4.25097847  52.05122375
H    10.85999966   5.84999990  50.93000031
H    12.38000011   3.45000005  54.97000122
H     9.89999962   3.24000001  55.65000153
H     7.64999962   3.44000006  55.17000198
H     8.45000076   5.58000040  51.56000137
H    16.97000122   6.28999996  51.65999985
H     5.84999990   4.26999998  53.86000061
H     6.10000038   5.71000004  52.95999908
S    17.72999954   4.42000008  56.05999756
C    20.36000061   4.88000011  55.34000015
C    19.03000069   5.00999975  55.00999832
C    18.60000038   5.55000019  53.75000000
C    19.55000114   6.02999973  52.87000275
C    20.90999985   6.05999994  53.22000122
C    21.90000153   6.67999983  52.41000366
C    23.25000000   6.56000042  52.63000107
C    23.64999962   5.84000015  53.79000092
C    22.72000122   5.38000011  54.68999863
C    21.31999969   5.47999954  54.47999954
C    17.14999962   5.47999954  53.67000198
C    16.56999969   4.78999996  54.75999832
C    15.22999954   4.42999983  54.68000031
C    25.10999870   5.50000000  54.00000000
H    25.52148438   5.92567348  54.91519547
H    20.69999886   4.23999977  56.14999771
H    19.25000000   6.39999962  51.88999939
H    21.54000092   7.09999990  51.46999741
H    24.03000069   6.94000006  51.97999954
H    23.15000153   4.82999992  55.52000046
H    14.73000050   3.93000007  55.50000000
H    25.68000031   5.92000008  53.15999985
H    25.26000023   4.41000032  53.99000168
