96

S    17.30999947   9.57999992  58.95999908
C    20.00999832   9.59000015  58.11000061
C    18.72999954   9.10000038  58.01000214
C    18.37000084   8.25000000  56.90999985
C    19.29000092   8.09000015  55.89000320
C    20.62000084   8.53999996  55.98999786
C    21.60000038   8.34999943  54.97000122
C    22.90999985   8.69000053  55.20000076
C    23.31000137   9.26999950  56.44000244
C    22.36000061   9.71000004  57.32999802
C    21.00000000   9.32999992  57.12999725
C    16.92000008   8.18000031  56.77999878
C    16.20000076   8.75000000  57.85999680
C    14.81999969   8.93000031  57.83000183
C    24.77999878   9.55000019  56.65000153
H    25.10057449   8.94446945  57.49774170
H    20.36999893   9.96000004  59.06999969
H    19.06999969   7.57000017  54.95999908
H    21.37000084   7.72000027  54.12000275
H    23.68999863   8.39999962  54.50000000
H    22.56000137  10.36000061  58.16999817
H    14.30999947   9.55000019  58.55999756
H    25.34000015   9.39999962  55.70999908
H    24.96000099  10.62000084  56.79999924
S    13.67000008   7.46000004  54.36999893
C    10.95000076   7.82999992  54.86999893
C    12.25000000   8.10999966  55.20999908
C    12.63000011   8.59000015  56.51000214
C    11.63000011   9.00000000  57.36000061
C    10.31000042   8.53999996  57.15000153
C     9.34000015   8.60000038  58.18999863
C     8.06999969   8.10000038  57.98999786
C     7.73999977   7.42999983  56.79000092
C     8.64999962   7.42000008  55.75000000
C     9.96999931   7.92999983  55.89000320
C    14.07999992   8.53999996  56.70999908
C    14.80999947   8.02999973  55.61000061
C    16.17000008   7.76999998  55.66999817
C     6.35999966   6.84000015  56.62000275
H     5.69039917   7.50247765  56.07149506
H    10.62999916   7.17999983  54.06000137
H    11.92999935   9.35000038  58.34999847
H     9.72999954   8.89999962  59.16999817
H     7.36000013   8.05999947  58.81000137
H     8.38999939   7.02000046  54.77000427
H    16.63999939   7.13999987  54.91000366
H     5.96000004   6.47000027  57.56999969
H     6.50000000   5.93999958  56.00999832
S    17.28000069   9.59999943  52.84999847
C    19.90999985   9.77000046  52.02000046
C    18.60999870   9.44999981  51.69000244
C    18.23999977   8.97000027  50.38999939
C    19.25000000   8.60999966  49.52000046
C    20.59999847   8.86999989  49.81999969
C    21.63999939   8.78000069  48.83999634
C    22.93999863   9.15000057  49.09000015
C    23.29000092   9.53999996  50.40999985
C    22.30999947   9.59999943  51.38000107
C    20.93000031   9.46000004  51.09000397
C    16.79000092   9.01000023  50.28999710
C    16.13999939   9.36999989  51.50000000
C    14.75999928   9.44999981  51.51000214
C    24.72999954   9.89000034  50.68000031
H    25.16485405   9.29831409  51.48554993
H    20.13999939  10.06999969  53.04000092
H    19.04999924   8.38000011  48.47000122
H    21.31000137   8.61999989  47.81999969
H    23.67000198   9.11000061  48.29000092
H    22.60000038   9.85999966  52.38999939
H    14.25000000   9.39999962  52.47000122
H    25.23999977   9.72000027  49.72000122
H    24.72999954  10.95000076  50.94999695
S    13.61999989   7.94000053  47.98999786
C    10.88000107   7.92000008  48.74000168
C    12.18999958   8.28999996  48.97999573
C    12.63000011   8.93999958  50.18000031
C    11.68000031   9.23999977  51.12999725
C    10.31000042   8.90999985  50.91999817
C     9.35000038   9.10000038  51.95000076
C     8.05000019   8.69000053  51.77000046
C     7.65999985   8.17000008  50.51000214
C     8.53999996   7.86999989  49.50000000
C     9.89999962   8.23000050  49.72000122
C    14.06000042   9.15000057  50.33000183
C    14.72000027   8.67999935  49.16999817
C    16.10999870   8.56000042  49.15000153
C     6.19999981   7.81000042  50.34000015
H     5.66527462   8.36611462  49.56999588
H    10.62999916   7.44999981  47.80000305
H    11.95000076   9.64999962  52.09999847
H     9.61999989   9.61000061  52.87000275
H     7.36000013   8.94999981  52.56999969
H     8.27999973   7.30999994  48.60000229
H    16.70999908   8.14000034  48.34999847
H     5.64000034   8.00000000  51.26999664
H     6.05999994   6.72999954  50.18000031
