96

S    16.56999969   9.26000023  58.90999603
C    19.29000092   9.46000004  58.23999786
C    18.01000023   9.07999992  57.90000153
C    17.61999893   8.47000027  56.66999817
C    18.60000038   8.27000046  55.70999908
C    19.85000038   8.89999962  55.89000320
C    20.86999893   8.71000004  54.91000366
C    22.17000008   9.10000038  55.14999771
C    22.55000114   9.59000015  56.42000198
C    21.61000061   9.72999954  57.42000198
C    20.23999977   9.39999962  57.18000031
C    16.18999863   8.45000076  56.39999771
C    15.47999954   8.76999950  57.58999634
C    14.09000015   8.80999947  57.58999634
C    24.00000000   9.92999935  56.69000244
H    24.48177719   9.34903431  57.47643280
H    19.61000061   9.86999989  59.19000244
H    18.46999931   7.59000015  54.87999725
H    20.59999847   8.23999977  53.96999741
H    22.92000008   9.11000061  54.36999893
H    21.90000153  10.00000000  58.43000031
H    13.61999989   8.94999981  58.54999924
H    24.69000053   9.85999966  55.84999847
H    23.78000069  10.97000027  56.95000076
S    13.02000046   7.95000029  53.88999939
C    10.31999969   7.77999973  54.56999969
C    11.61999893   8.01999950  54.95999908
C    11.92999935   8.38000011  56.31000137
C    10.92000008   8.46000004  57.25000000
C     9.57999992   8.21000004  56.88000107
C     8.53999996   8.14999962  57.84999847
C     7.28999996   7.69000006  57.52999878
C     6.98000002   7.30000019  56.19999695
C     7.94000053   7.40999985  55.22999573
C     9.26999950   7.83999968  55.52000046
C    13.38000107   8.53999996  56.42000198
C    14.11999893   8.22000027  55.25000000
C    15.51000023   8.14000034  55.21999741
C     5.55000019   7.03000021  55.79999924
H     5.17935181   7.63586760  54.97317123
H    10.03000069   7.42000008  53.57999802
H    11.18999958   8.75000000  58.26000214
H     8.85000038   8.45000076  58.86000061
H     6.57999992   7.40999985  58.29999924
H     7.69999981   7.04999971  54.22999954
H    16.04999924   7.92999983  54.29999924
H     4.92999983   7.34000015  56.65999985
H     5.36000013   5.96000004  55.65000153
S    13.43999958   6.28000021  50.96000290
C    10.72999954   5.78000021  51.43000031
C    12.03999996   5.61999989  51.83000183
C    12.48000050   4.72000027  52.85999680
C    11.50000000   4.19999981  53.68999863
C    10.14000034   4.48000002  53.40999985
C     9.10000038   4.02999973  54.27999878
C     7.77999973   4.25000000  53.97999573
C     7.36999989   4.88000011  52.77000046
C     8.34999943   5.25000000  51.88000107
C     9.72999954   5.15999985  52.21000290
C    13.92000008   4.76000023  53.04000092
C    14.60999966   5.47999954  52.02999878
C    15.95000076   5.82000017  52.08000183
C     5.91000032   4.99000025  52.38999939
H     5.69596815   4.14100790  51.74076843
H    10.46000004   6.25999975  50.48999786
H    11.67000008   3.55999994  54.54000092
H     9.30000019   3.42999983  55.17000198
H     6.96000004   3.98000002  54.62999725
H     8.10999966   5.86999989  51.02000427
H    16.47999954   6.21999979  51.22000122
H     5.25000000   5.00000000  53.27000046
H     5.79999971   6.02999973  52.04999924
S    17.09000015   4.15999985  55.56999969
C    19.72999954   4.76000023  55.12000275
C    18.44000053   4.82999992  54.64000320
C    18.06999969   5.51999998  53.43999863
C    19.06999969   6.01999998  52.62000275
C    20.40999985   5.82000017  53.02000046
C    21.42000008   6.32000017  52.15999985
C    22.75000000   6.15000010  52.47000122
C    23.09999847   5.51000023  53.68999863
C    22.14999962   5.09000015  54.59000015
C    20.76999855   5.27999973  54.31000137
C    16.62999916   5.45000029  53.25000000
C    16.00000000   4.72000027  54.29000092
C    14.67000008   4.33999968  54.15000153
C    24.54000092   5.07000017  53.81999969
H    25.05272293   5.73938751  54.51074982
H    20.15000153   4.26999998  55.98999786
H    18.86999893   6.51999998  51.68000031
H    21.09000015   6.94000006  51.32999802
H    23.54999924   6.48999977  51.81999969
H    22.52000046   4.38000011  55.33000183
H    14.37000084   3.75000000  55.00999832
H    24.97999954   5.07999992  52.81000137
H    24.53000069   3.98999977  54.03999710
