96

S    17.43999863   9.30000019  58.63999939
C    20.07999802   9.35000038  57.81999969
C    18.78999901   9.00000000  57.52999878
C    18.35000038   8.63000011  56.20999908
C    19.34000015   8.48999977  55.25000000
C    20.66999817   8.89999962  55.52000046
C    21.68999863   8.73999977  54.54000092
C    22.98999977   8.96000004  54.92000198
C    23.35000038   9.57999992  56.14999771
C    22.37999916   9.88000011  57.06999969
C    21.04999924   9.44999981  56.79000092
C    16.90000153   8.67999935  56.09000397
C    16.28000069   8.96000004  57.34000397
C    14.88999939   9.02999973  57.37999725
C    24.80999947   9.77999973  56.49000168
H    25.13084793   9.10265255  57.28142929
H    20.23999977   9.84000015  58.77999878
H    19.15999985   8.31999969  54.20000076
H    21.50000000   8.31999969  53.54999924
H    23.81999969   8.71999931  54.27000046
H    22.75000000  10.26000023  58.02000046
H    14.32999992   9.21000004  58.29000092
H    25.50000000   9.71000004  55.63000107
H    24.82999992  10.77999973  56.95000076
S    13.71999931   7.69000006  53.79000092
C    11.05999947   7.30000019  54.72000122
C    12.35000038   7.73000002  54.92000198
C    12.69999981   8.51000023  56.06999969
C    11.72999954   8.76999950  57.02000046
C    10.38000011   8.43999958  56.77000046
C     9.35999966   8.64000034  57.75000000
C     8.07999992   8.26000023  57.45999908
C     7.65999985   7.76999998  56.18999863
C     8.64000034   7.53999996  55.25000000
C    10.01000023   7.76000023  55.56000137
C    14.14000034   8.69000053  56.25000000
C    14.80000019   8.30000019  55.06000137
C    16.18000031   8.36000061  54.93999863
C     6.24000025   7.34000015  55.90000153
H     5.76987505   7.95258760  55.13070297
H    10.72000027   6.71999979  53.87000275
H    12.02000046   9.32999992  57.90999985
H     9.67000008   8.85000038  58.76999664
H     7.46999979   8.27000046  58.36000061
H     8.38999939   7.03999996  54.31999969
H    16.68000031   7.94000053  54.06999969
H     5.72000027   7.42000008  56.86000061
H     6.23000050   6.30000019  55.54000092
S    14.19000053   5.80999947  50.96000290
C    11.57999992   4.99000025  51.50000000
C    12.89999962   5.00999975  51.88000107
C    13.36999989   4.30000019  53.04000092
C    12.39999962   3.77999997  53.87000275
C    11.03000069   3.82999992  53.54000092
C    10.03999901   3.44000006  54.47999954
C     8.69000053   3.58999991  54.29999924
C     8.26000023   4.26999998  53.11999893
C     9.15999985   4.67999983  52.16999817
C    10.55999947   4.50000000  52.35000229
C    14.80999947   4.46999979  53.20999908
C    15.36999893   5.22000027  52.15000153
C    16.70999908   5.59000015  52.11999893
C     6.83000040   4.71000004  52.93000031
H     6.34675217   4.31913757  52.03456879
H    11.28999901   5.61999989  50.65999985
H    12.68000031   3.50000000  54.88999939
H    10.47999954   2.98000002  55.37000275
H     8.01999950   3.44000006  55.13999939
H     8.80999947   5.29999971  51.33999634
H    17.11000061   6.10000038  51.25000000
H     6.25000000   4.59000015  53.85000229
H     6.84000015   5.80999947  52.81999969
S    18.12000084   4.15999985  55.59000015
C    20.75000000   4.92999983  54.93000031
C    19.40999985   4.90999985  54.62999725
C    18.96999931   5.40000010  53.36000061
C    19.85999870   5.92999983  52.43999863
C    21.25000000   5.82000017  52.70999908
C    22.20999908   6.15000010  51.70999908
C    23.55999947   6.11000013  51.97000122
C    24.02000046   5.59000015  53.20999908
C    23.12000084   5.25000000  54.19000244
C    21.70999908   5.36999989  53.99000168
C    17.53999901   5.17000008  53.15999985
C    16.97999954   4.48000002  54.27000046
C    15.64000034   4.11000013  54.27999878
C    25.50000000   5.32000017  53.36999893
H    25.82790756   5.48395443  54.39649582
H    21.21000099   4.41000032  55.77999878
H    19.50000000   6.32999992  51.50000000
H    21.77000046   6.51999998  50.79000092
H    24.23000145   6.46000004  51.19999695
H    23.36999893   4.67999983  55.06999969
H    15.15999985   3.68000007  55.15999603
H    25.95000076   6.09000015  52.74000168
H    25.81000137   4.33999968  52.98999786
