96

S    16.84999847   9.44000053  58.62999725
C    19.55999947   9.71000004  57.87000275
C    18.26000023   9.36999989  57.56000137
C    17.86000061   8.89000034  56.26999664
C    18.86999893   8.75000000  55.34000015
C    20.22000122   8.97000027  55.68999863
C    21.27000046   8.75000000  54.75999832
C    22.56999969   9.11000061  55.05000305
C    22.93999863   9.71000004  56.27999878
C    21.97999954   9.78999996  57.25999832
C    20.62999916   9.43000031  56.98999786
C    16.42000008   8.67000008  56.11999893
C    15.75000000   8.94999981  57.32999802
C    14.37000084   8.88000011  57.48000336
C    24.36000061  10.17000008  56.53999710
H    24.74598503   9.54813576  57.34770966
H    19.88999939   9.98999977  58.87000275
H    18.60000038   8.67000008  54.29000092
H    20.88999939   8.34000015  53.81999969
H    23.31999969   8.94999981  54.29000092
H    22.25000000  10.21999931  58.22000122
H    13.81000042   9.01000023  58.40000153
H    24.93999863   9.98999977  55.63000107
H    24.51000023  11.26000023  56.62000275
S    13.15999985   8.23999977  53.75000000
C    10.47999954   8.00000000  54.43000031
C    11.76000023   8.27999973  54.84000397
C    12.13000107   8.57999992  56.18999863
C    11.10000038   8.65999985  57.09999847
C     9.77000046   8.32999992  56.75000000
C     8.75000000   8.27999973  57.74000168
C     7.53000021   7.73000002  57.43999863
C     7.23999977   7.25000000  56.12999725
C     8.18000031   7.36999989  55.13000107
C     9.44999981   7.94000053  55.40000153
C    13.57999992   8.69000053  56.33999634
C    14.25000000   8.34000015  55.13999939
C    15.62999916   8.23000050  55.05000305
C     5.82000017   6.81999969  55.84000015
H     5.40654993   7.39740419  55.01309967
H    10.34000015   7.63000011  53.40999985
H    11.31000042   8.93999958  58.13999939
H     9.09000015   8.46000004  58.75999832
H     6.75000000   7.59000015  58.18000031
H     7.90000010   6.98000002  54.15000153
H    15.97000027   7.69999981  54.15999985
H     5.14999962   7.02000046  56.68000031
H     5.75999975   5.73999977  55.68999863
S    13.55000019   5.65000010  50.94999695
C    10.92000008   5.33999968  51.77000046
C    12.23999977   5.05999994  51.98999786
C    12.71999931   4.51999998  53.22999954
C    11.76000023   4.15000010  54.15999985
C    10.38000011   4.39000034  53.96999741
C     9.46000004   3.79999995  54.87999725
C     8.13000011   3.74000025  54.52999878
C     7.67000008   4.21999979  53.27000046
C     8.55000019   4.81999969  52.39999771
C     9.94999981   4.86999989  52.69000244
C    14.14000034   4.79999971  53.39000320
C    14.73000050   5.44000053  52.25999832
C    16.06999969   5.80999947  52.25999832
C     6.17999983   4.07000017  53.04999924
H     5.85944557   4.31932020  52.03847504
H    10.47999954   5.80999947  50.89000320
H    12.05999947   3.60000014  55.05000305
H     9.90999985   3.30000019  55.72999954
H     7.42999983   3.25999999  55.20999908
H     8.14000034   5.07000017  51.43000031
H    16.47999954   6.07999992  51.29000092
H     5.96000004   3.01999998  53.27999878
H     5.60999966   4.65999985  53.76999664
S    17.54999924   4.39000034  55.65999985
C    20.19000053   4.90999985  54.79000092
C    18.82999992   4.99000025  54.59000015
C    18.35000038   5.64000034  53.40999985
C    19.19000053   6.17999983  52.45999908
C    20.59000015   6.11000013  52.65999603
C    21.50000000   6.65000010  51.70000076
C    22.85000038   6.51999998  51.88999939
C    23.39999962   5.97000027  53.06999969
C    22.50000000   5.56999969  54.03999710
C    21.09000015   5.49000025  53.86000061
C    16.90000153   5.55999994  53.36000061
C    16.34000015   4.85000038  54.45999908
C    14.96999931   4.57999992  54.48999786
C    24.87999916   6.09000015  53.36999893
H    25.14417648   5.51166821  54.25534821
H    20.59000015   4.38000011  55.65000153
H    18.81000137   6.76999998  51.63000107
H    21.14000130   7.09000015  50.77999878
H    23.55999947   6.89000034  51.13999939
H    22.84000015   5.26999998  55.01999664
H    14.44000053   4.11999989  55.31999969
H    25.17000008   7.13999987  53.52000427
H    25.55999947   5.66999960  52.62000275
