96

S    16.81999969   9.85000038  58.72000122
C    19.50000000   9.85000038  58.09000015
C    18.22999954   9.51000023  57.69000244
C    17.89999962   9.06999969  56.36000061
C    18.97999954   8.82000065  55.54000092
C    20.29999924   9.22000027  55.87999725
C    21.35999870   9.01000023  54.95999908
C    22.65000153   9.39999962  55.25000000
C    22.92000008   9.86999989  56.56000137
C    21.91999817  10.15999985  57.45999908
C    20.59000015   9.73999977  57.18999863
C    16.46000099   8.85999966  56.25000000
C    15.77000046   9.28999996  57.39999771
C    14.37999916   9.35000038  57.48000336
C    24.33000183  10.25000000  56.93000031
H    24.69404221   9.57902050  57.70804977
H    19.63999939  10.25000000  59.09000015
H    18.73999977   8.19000053  54.68999863
H    21.12999916   8.50000000  54.02999878
H    23.38000107   9.11999989  54.48999786
H    22.19000053  10.57000065  58.43000031
H    13.99000072   9.46000004  58.48999786
H    25.06000137  10.25000000  56.11000061
H    24.30999947  11.28999901  57.27000427
S    13.12999916   8.15999985  53.94000244
C    10.44000053   8.11999989  54.61999893
C    11.72000027   8.46000004  54.97000122
C    12.13999939   9.06999969  56.19999695
C    11.18000031   9.18000031  57.18999863
C     9.85000038   8.76000023  56.91999817
C     8.86999989   8.69000053  57.94000244
C     7.59000015   8.27000046  57.63999939
C     7.17000008   7.78999996  56.37000275
C     8.13000011   7.78999996  55.38999939
C     9.44000053   8.30000019  55.61999893
C    13.59000015   9.13999939  56.33999634
C    14.27999973   8.63000011  55.21999741
C    15.65999985   8.47999954  55.15999603
C     5.72000027   7.40999985  56.14999771
H     5.30613375   7.93090057  55.28658676
H    10.24000072   7.57999992  53.69999695
H    11.54999924   9.52999973  58.15000153
H     9.15000057   9.17000008  58.88000107
H     6.84999990   8.52000046  58.39000320
H     7.88999987   7.53000021  54.36000061
H    16.22999954   8.27999973  54.26000214
H     5.01999950   7.73999977  56.91999817
H     5.66999960   6.32000017  56.00000000
S    13.56999969   6.25000000  51.07999802
C    10.88000107   5.50000000  51.62000275
C    12.20000076   5.55999994  51.97999954
C    12.64000034   4.96000004  53.20000076
C    11.68000031   4.55999994  54.10999680
C    10.29999924   4.63000011  53.79000092
C     9.32999992   4.03999996  54.65000153
C     7.97999954   4.13000011  54.38000107
C     7.53999996   4.71000004  53.15999985
C     8.46000004   5.07000017  52.19999695
C     9.85000038   5.03999996  52.49000168
C    14.09000015   4.94000006  53.31999969
C    14.73999977   5.65000010  52.28000259
C    16.10000038   5.92999983  52.36000061
C     6.09000015   5.05000019  52.90999985
H     5.67655039   4.47259569  52.08309937
H    10.57000065   6.00000000  50.70999908
H    11.92999935   3.98999977  55.00000000
H     9.61000061   3.38000011  55.47000122
H     7.25000000   3.73000002  55.07999802
H     8.18000031   5.61999989  51.31000137
H    16.48999977   6.57999992  51.59000015
H     5.58000040   4.97000027  53.87000275
H     6.03999996   6.12999964  52.72999573
S    17.28999901   4.09999990  55.72000122
C    19.98999977   4.57999992  55.18000031
C    18.67000008   4.76000023  54.81999969
C    18.27000046   5.46999979  53.64999771
C    19.14999962   6.15999985  52.83000183
C    20.51000214   6.06999969  53.20000076
C    21.54000092   6.63000011  52.38999939
C    22.86000061   6.34000015  52.64999771
C    23.22000122   5.50000000  53.74000168
C    22.27000046   5.00999975  54.59999847
C    20.89999962   5.23000002  54.29999924
C    16.82999992   5.40000010  53.43000031
C    16.21999931   4.51999998  54.36000061
C    14.84000015   4.39000034  54.36999893
C    24.69000053   5.21000004  53.95000076
H    25.11774445   5.60922718  54.86964798
H    20.32999992   3.93000007  55.97999954
H    18.78000069   6.80999994  52.04000092
H    21.21999931   7.25000000  51.56999969
H    23.62999916   6.71000004  51.97000122
H    22.43999863   4.30000019  55.41999817
H    14.35999966   3.81000018  55.14999771
H    25.28000069   5.55999994  53.09999847
H    24.79000092   4.11999989  53.94000244
