96

S    17.13000107   9.52999973  58.69999695
C    19.84000015   9.57999992  58.04999924
C    18.55999947   9.26000023  57.68000031
C    18.17000008   8.82000065  56.37000275
C    19.19999886   8.69999981  55.45999908
C    20.53999901   8.88000011  55.86999893
C    21.61000061   8.65999985  54.94999695
C    22.93000031   8.84000015  55.27000046
C    23.29000092   9.26999950  56.58000183
C    22.29999924   9.52999973  57.50000000
C    20.93000031   9.30999947  57.18999863
C    16.72999954   8.60999966  56.30000305
C    15.98999977   9.03999996  57.43000031
C    14.60999966   9.11000061  57.51999664
C    24.73999977   9.50000000  56.91999817
H    25.12375641   8.78934097  57.65197754
H    19.88000107  10.19999981  58.95000076
H    18.89999962   8.36999989  54.47000122
H    21.45000076   8.34000015  53.93000031
H    23.69999886   8.55000019  54.55999756
H    22.60000038   9.98000050  58.44999695
H    14.07999992   9.44999981  58.40000153
H    25.38999939   9.50000000  56.04000092
H    24.90999985  10.42000008  57.50000000
S    13.48999977   7.95000029  53.88000107
C    10.76000023   7.92999983  54.43999863
C    12.03999996   8.26000023  54.85000229
C    12.46000099   8.69000053  56.14999771
C    11.44000053   8.93000031  57.04999924
C    10.10000038   8.71000004  56.65000153
C     9.03999996   8.82000065  57.60000229
C     7.75000000   8.47999954  57.28000259
C     7.34000015   8.06999969  55.97999954
C     8.34000015   8.00000000  55.04000092
C     9.71000004   8.23999977  55.34999847
C    13.89999962   8.75000000  56.36000061
C    14.60999966   8.32999992  55.20999908
C    15.98999977   8.22000027  55.17000198
C     5.98000002   7.46000004  55.72999954
H     5.46832561   8.02142048  54.94827271
H    10.50000000   7.46999979  53.50000000
H    11.67000008   9.30999947  58.04000092
H     9.35999966   8.93000031  58.62999725
H     7.07000017   8.47000027  58.13000107
H     8.03999996   7.60999966  54.08000183
H    16.46999931   7.77999973  54.29999924
H     5.42000008   7.55999994  56.65999985
H     6.05000019   6.39999962  55.45000076
S    13.52000046   5.69000006  51.03000259
C    10.85000038   5.25000000  51.73999786
C    12.18999958   5.19999981  52.08000183
C    12.69000053   4.53999996  53.25000000
C    11.77999973   3.86999989  54.05000305
C    10.39000034   4.03999996  53.87000275
C     9.36999989   3.67000008  54.79999924
C     8.03999996   3.77999997  54.47999954
C     7.55999994   4.34999990  53.27000046
C     8.53999996   4.79999971  52.42000198
C     9.94000053   4.69999981  52.67000198
C    14.13000011   4.69000006  53.39000320
C    14.75000000   5.21000004  52.22000122
C    16.10000038   5.52999973  52.23999786
C     6.10000038   4.59999990  52.98999786
H     5.76700735   4.34494162  51.98393631
H    10.48999977   5.84999990  50.90999985
H    12.13000107   3.44000006  54.99000168
H     9.59000015   3.12999988  55.72000122
H     7.30999994   3.49000001  55.21999741
H     8.28999996   5.38000011  51.52999878
H    16.55999947   6.05999994  51.40999603
H     5.51000023   3.98999977  53.69999695
H     5.88000011   5.65999985  53.11999893
S    17.43999863   4.00999975  55.70999908
C    20.10999870   4.71000004  55.04000092
C    18.75000000   4.77999973  54.79000092
C    18.30000114   5.31000042  53.54999924
C    19.14999962   5.84000015  52.58999634
C    20.52999878   5.77000046  52.88000107
C    21.42000008   6.10000038  51.81999969
C    22.77000046   6.11000013  52.06999969
C    23.25000000   5.78999996  53.36999893
C    22.44999886   5.22000027  54.34000015
C    21.04000092   5.22000027  54.10999680
C    16.84999847   5.21000004  53.37999725
C    16.27000046   4.56999969  54.50000000
C    14.91000080   4.28000021  54.47999954
C    24.73999977   5.93999958  53.59000397
H    25.16079521   5.41222286  54.44585800
H    20.45999908   4.23000002  55.94999695
H    18.85000038   6.17000008  51.59999847
H    20.88999939   6.50000000  50.96000290
H    23.45000076   6.57000017  51.36000061
H    22.89999962   4.72000027  55.18000031
H    14.37000084   4.02999973  55.38000107
H    25.05000114   6.94999981  53.88000107
H    25.30999947   5.69000006  52.68000031
