96

S    16.75000000   9.71000004  58.61000061
C    19.45000076   9.84000015  57.93000031
C    18.19000053   9.36999989  57.63999939
C    17.94000053   8.78999996  56.35000229
C    18.96999931   8.57999992  55.45000076
C    20.29999924   8.92000008  55.77000046
C    21.37000084   8.80000019  54.84000397
C    22.63000107   9.25000000  55.17000198
C    22.86999893   9.85000038  56.44000244
C    21.84000015  10.03000069  57.32999802
C    20.52000046   9.59000015  57.02000046
C    16.50000000   8.75000000  56.13999939
C    15.72999954   9.19000053  57.25000000
C    14.35999966   9.42000008  57.25000000
C    24.27999878  10.15999985  56.86999893
H    24.67107773   9.48450089  57.63082504
H    19.52000046  10.47000027  58.81000137
H    18.76000023   8.19000053  54.45000076
H    21.09999847   8.26000023  53.94000244
H    23.51000023   8.92000008  54.61999893
H    22.01999855  10.64000034  58.20999908
H    13.73000050   9.86999989  58.02000046
H    24.89999962  10.17000008  55.97000122
H    24.21999931  11.21000099  57.19999695
S    13.45000076   7.88000011  53.68000031
C    10.70000076   7.85000038  54.38000107
C    12.00000000   8.22000027  54.64000320
C    12.30999947   8.92000008  55.84999847
C    11.31999969   9.13000011  56.79999924
C    10.01999950   8.60000038  56.59999847
C     8.97999954   8.76000023  57.56000137
C     7.69000006   8.46000004  57.18000031
C     7.34000015   7.82000017  55.97000122
C     8.34000015   7.57000017  55.05000305
C     9.68000031   7.96000004  55.34999847
C    13.75000000   9.02999973  56.05999756
C    14.48999977   8.60999966  54.92000198
C    15.86999989   8.46000004  54.93000031
C     5.96000004   7.32999992  55.61000061
H     5.48292494   7.89964199  54.81250000
H    10.55999947   7.42000008  53.40000153
H    11.46000004   9.55999947  57.77999878
H     9.17000008   9.13999939  58.55999756
H     6.88000011   8.43000031  57.90000153
H     8.13000011   7.17000008  54.06999969
H    16.46000099   7.96999979  54.15000153
H     5.36000013   7.40000010  56.53999710
H     6.01999998   6.28999996  55.27000046
S    17.48999977  10.17000008  52.50999832
C    20.17999840  10.31999969  51.72000122
C    18.89999962   9.89000034  51.46999741
C    18.59000015   9.02999973  50.38000107
C    19.55000114   8.65999985  49.45999908
C    20.86000061   9.19000053  49.59000015
C    21.96000099   8.93999958  48.73000336
C    23.26000023   9.34000015  48.96999741
C    23.54999924  10.01000023  50.18000031
C    22.52000046  10.29999924  51.04000092
C    21.15999985   9.98000050  50.76000214
C    17.14999962   8.84000015  50.22999573
C    16.43000031   9.44999981  51.27999878
C    15.06000042   9.68000031  51.27999878
C    24.90999985  10.62000084  50.47999954
H    25.65112114   9.93588924  50.89331436
H    20.52999878  10.95000076  52.54000092
H    19.32999992   7.99000025  48.62999725
H    21.68999863   8.21000004  47.95999908
H    24.01000023   9.15000057  48.20999908
H    22.67000008  10.85000038  51.97000122
H    14.47999954  10.03999901  52.12999725
H    25.23999977  11.00000000  49.51000214
H    24.76000023  11.52999973  51.07999802
S    13.89999962   8.14000034  47.81000137
C    11.17000008   8.23000050  48.47999954
C    12.46999931   8.57999992  48.75999832
C    12.86999893   9.19999981  49.98000336
C    11.90000057   9.39000034  50.94999695
C    10.54999924   9.02000046  50.72000122
C     9.50000000   9.31999969  51.63000107
C     8.22000027   8.92000008  51.32999802
C     7.90999985   8.09000015  50.22999573
C     8.89999962   7.82000017  49.31000137
C    10.24000072   8.25000000  49.54999924
C    14.30999947   9.22999954  50.19000244
C    15.00000000   8.60000038  49.13000107
C    16.38000107   8.40999985  49.13999939
C     6.46000004   7.69999981  50.00999832
H     6.01142502   8.26249886  49.19117355
H    10.85999966   7.88999987  47.49000168
H    12.17000008   9.71000004  51.95999908
H     9.70000076   9.81000042  52.57999802
H     7.40999985   9.27999973  51.95999908
H     8.82999992   7.51999950  48.27000046
H    16.90000153   8.03999996  48.27000046
H     5.91000032   7.88999987  50.93999863
H     6.32999992   6.65000010  49.72999954
