96

S    17.13999939   9.47000027  58.96999741
C    19.88000107   9.13000011  58.46000290
C    18.56999969   9.00000000  58.04000092
C    18.20000076   8.56000042  56.72999954
C    19.19999886   8.34000015  55.79999924
C    20.55999947   8.53999996  56.14999771
C    21.68000031   8.34000015  55.28999710
C    23.00000000   8.48999977  55.63000107
C    23.25000000   9.07999992  56.90000153
C    22.22999954   9.35000038  57.77999878
C    20.88999939   8.96000004  57.49000168
C    16.77000046   8.53999996  56.46999741
C    16.07999992   9.04999924  57.61000061
C    14.68999958   9.15000057  57.55000305
C    24.63000107   9.48000050  57.37999725
H    25.20859146   8.76568794  57.96573639
H    20.05000114   9.52999973  59.45999908
H    18.89000130   7.97999954  54.81999969
H    21.44000053   7.96999979  54.29999924
H    23.75000000   7.96999979  55.04000092
H    22.39999962   9.84000015  58.73000336
H    14.15999985   9.23999977  58.48999786
H    25.23999977   9.63000011  56.47999573
H    24.53000069  10.43000031  57.91999817
S    13.60999966   7.57999992  54.06000137
C    10.90999985   7.53999996  54.62999725
C    12.17000008   7.90000010  55.05000305
C    12.55000019   8.46000004  56.31000137
C    11.51000023   8.69000053  57.19999695
C    10.17000008   8.34999943  56.84999847
C     9.11000061   8.47000027  57.78999710
C     7.78999996   8.19000053  57.50000000
C     7.55999994   7.50999975  56.26999664
C     8.55000019   7.30999994  55.34000015
C     9.88000011   7.75000000  55.58000183
C    13.97999954   8.69999981  56.44000244
C    14.68999958   8.19999981  55.31999969
C    16.06999969   8.09000015  55.34000015
C     6.15999985   6.98000002  56.05999756
H     5.63504648   7.38435650  55.19453812
H    10.77999973   6.98000002  53.70999908
H    11.71000004   9.22000027  58.11999893
H     9.42000008   8.76000023  58.79000092
H     6.97000027   8.18000031  58.20999908
H     8.34000015   6.80000019  54.40999985
H    16.67000008   7.57999992  54.59000015
H     5.52999973   7.18999958  56.93000031
H     6.10000038   5.88999987  55.97999954
S    14.06000042   5.63000011  50.93000031
C    11.42000008   5.01999950  51.49000168
C    12.74000072   4.86999989  51.84000015
C    13.17999935   4.28000021  53.06999969
C    12.20999908   3.86000013  53.96999741
C    10.84000015   4.01999998  53.67000198
C     9.86999989   3.79999995  54.68999863
C     8.53999996   3.96000004  54.38000107
C     8.17000008   4.35999966  53.06000137
C     9.06000042   4.67999983  52.05999756
C    10.44000053   4.51000023  52.37999725
C    14.57999992   4.56999969  53.33000183
C    15.19000053   5.26999998  52.25000000
C    16.52000046   5.65999985  52.23999786
C     6.70000029   4.61000013  52.83000183
H     6.27430105   3.89340615  52.12759781
H    11.16000080   5.72000027  50.70000076
H    12.48000050   3.38999987  54.91000366
H    10.29999924   3.60000014  55.66999817
H     7.88000011   3.79999995  55.21999741
H     8.86999989   5.26999998  51.18000031
H    16.81999969   6.30999994  51.42000198
H     6.28999996   4.44000006  53.83999634
H     6.51999998   5.65999985  52.60000229
S    17.86000061   4.39000034  55.77000046
C    20.58000183   4.73000002  55.06000137
C    19.23999977   4.85000038  54.75000000
C    18.75000000   5.31000042  53.48999786
C    19.67000008   5.84000015  52.61000061
C    21.04999924   5.73000002  52.88999939
C    21.97000122   6.17000008  51.90000153
C    23.31000137   6.30000019  52.18999863
C    23.78000069   5.78999996  53.43000031
C    22.93999863   5.19999981  54.34999847
C    21.54000092   5.13999987  54.10999680
C    17.29999924   5.23000002  53.31999969
C    16.68000031   4.69999981  54.47999954
C    15.34000015   4.32000017  54.47999954
C    25.25000000   5.86999989  53.75999832
H    25.50590324   5.43638802  54.72674179
H    20.86000061   4.36999989  56.04000092
H    19.34000015   6.15999985  51.62000275
H    21.70999908   6.58999968  50.93000031
H    24.05999947   6.48999977  51.43000031
H    23.35000038   4.78999996  55.27000046
H    14.91000080   3.77999997  55.31000137
H    25.48999977   6.94000006  53.73000336
H    25.81999969   5.49000025  52.90000153
