96

S    16.47999954   9.50000000  58.56999969
C    19.19000053   9.59999943  57.76000214
C    17.87999916   9.26999950  57.50999832
C    17.43000031   8.82000065  56.23000336
C    18.42000008   8.67000008  55.27000046
C    19.78999901   8.93999958  55.48999786
C    20.73999786   9.04999924  54.43000031
C    22.04999924   9.36999989  54.66999817
C    22.39000130   9.85999966  55.96000290
C    21.51000023   9.96999931  57.01000214
C    20.19000053   9.48000050  56.76000214
C    15.98000050   8.75000000  56.07999802
C    15.31000042   9.11000061  57.28000259
C    13.93000031   9.06999969  57.42000198
C    23.78000069  10.39000034  56.23000336
H    24.37875175   9.69145584  56.81449509
H    19.55000114  10.06000042  58.67000198
H    18.20999908   8.42000008  54.23999786
H    20.45000076   8.76000023  53.41999817
H    22.78000069   9.21000004  53.88000107
H    21.78999901  10.26999950  58.01000214
H    13.42000008   9.25000000  58.36000061
H    24.25000000  10.65999985  55.27000046
H    23.61999893  11.38000011  56.68000031
S    12.77999973   7.96999979  53.75999832
C    10.08999920   7.76999998  54.45999908
C    11.38000011   8.07999992  54.82999802
C    11.69999981   8.50000000  56.16000366
C    10.71000004   8.47000027  57.12999725
C     9.36999989   8.15999985  56.79999924
C     8.34999943   8.31999969  57.78999710
C     7.04999971   8.10000038  57.43000031
C     6.76000023   7.64999962  56.11000061
C     7.71000004   7.50000000  55.12000275
C     9.06999969   7.78999996  55.44000244
C    13.12999916   8.73000050  56.32999802
C    13.81999969   8.42000008  55.13000107
C    15.19999981   8.46000004  54.95999908
C     5.35000038   7.21000004  55.80999756
H     4.85355043   7.77737141  55.02276993
H     9.96000004   7.44000006  53.43000031
H    10.90999985   8.78000069  58.15999985
H     8.52000046   8.64000034  58.81000137
H     6.32999992   8.19000053  58.23999786
H     7.46000004   7.17999983  54.12000275
H    15.67999935   8.25000000  54.01000214
H     4.76999998   7.32999992  56.72999954
H     5.32000017   6.15999985  55.50000000
S    16.97999954  10.42000008  52.32999802
C    19.67000008  10.52999973  51.81999969
C    18.45000076  10.03999901  51.40999603
C    18.11000061   9.26000023  50.26000214
C    19.19000053   8.97000027  49.43999863
C    20.48000145   9.44999981  49.78000259
C    21.61999893   9.13999939  48.99000168
C    22.93999863   9.39000034  49.29999924
C    23.15000153  10.18000031  50.45999908
C    22.10000038  10.62000084  51.23000336
C    20.75000000  10.24000072  50.94999695
C    16.68000031   9.13999939  50.02999878
C    15.95000076   9.55999947  51.17000198
C    14.55999947   9.48999977  51.26999664
C    24.54000092  10.69000053  50.77999878
H    25.18771935  10.09922314  51.42771912
H    19.78999901  11.18999958  52.67000198
H    19.14999962   8.19999981  48.67000198
H    21.44000053   8.50000000  48.13000107
H    23.78000069   8.97000027  48.76999664
H    22.26000023  11.31000042  52.05999756
H    14.01000023   9.81000042  52.15000153
H    25.05000114  10.93999958  49.84000397
H    24.44999886  11.67000008  51.27999878
S    13.53999996   7.79999971  47.81999969
C    10.84000015   7.88000011  48.43999863
C    12.13000107   8.17000008  48.82999802
C    12.46999931   8.76000023  50.08999634
C    11.43000031   9.13999939  50.91999817
C    10.08999920   8.78999996  50.61999893
C     8.97999954   9.10000038  51.45999908
C     7.72000027   8.78999996  51.00000000
C     7.39000034   8.10999966  49.79999924
C     8.47000027   7.82999992  48.99000168
C     9.80000019   8.18000031  49.34999847
C    13.90999985   8.93000031  50.17000198
C    14.63999939   8.47999954  49.03999710
C    16.02000046   8.64000034  48.90999603
C     6.02999973   7.51999950  49.50000000
H     5.48939180   8.11040020  48.76022339
H    10.67000008   7.57000017  47.41000366
H    11.65999985   9.72000027  51.81000137
H     9.13999939   9.63000011  52.39999771
H     7.02000046   8.92000008  51.81999969
H     8.31999969   7.26000023  48.08000183
H    16.39999962   8.21000004  47.97999954
H     5.55000019   7.64999962  50.47999954
H     6.11000013   6.44000006  49.31000137
