96

S    17.13000107   9.75000000  58.72000122
C    19.90999985   9.68999958  58.22000122
C    18.61999893   9.52999973  57.77999878
C    18.29000092   9.11000061  56.45000076
C    19.27999878   8.94999981  55.50000000
C    20.62999916   9.04999924  55.89000320
C    21.68000031   8.85000038  54.94999695
C    22.98000145   9.11999989  55.30000305
C    23.25000000   9.72000027  56.56000137
C    22.25000000   9.89999962  57.48000336
C    20.90999985   9.48999977  57.22999954
C    16.86000061   9.06999969  56.19999695
C    16.10999870   9.61999989  57.27000427
C    14.72000027   9.72000027  57.31999969
C    24.61000061  10.34000015  56.83000183
H    25.21535110   9.69904137  57.47095871
H    20.22999954  10.11000061  59.16999817
H    19.05999947   8.43000031  54.55999756
H    21.42000008   8.75000000  53.88999939
H    23.78999901   9.06999969  54.58000183
H    22.47999954  10.53999996  58.31999969
H    14.27999973  10.11999989  58.22999954
H    25.13000107  10.40999985  55.86999893
H    24.40000153  11.30000019  57.31999969
S    13.64999962   7.99000025  53.94000244
C    10.90999985   8.14999962  54.45000076
C    12.20000076   8.42000008  54.86000061
C    12.53000069   8.98999977  56.12999725
C    11.50000000   9.38000011  56.95999908
C    10.17000008   9.00000000  56.68000031
C     9.19000053   9.11000061  57.70000076
C     7.92000008   8.64999962  57.44999695
C     7.60999966   7.94000053  56.25999832
C     8.59000015   7.78999996  55.31000137
C     9.90999985   8.30000019  55.45000076
C    13.96999931   9.13000011  56.30000305
C    14.72000027   8.59000015  55.21999741
C    16.10000038   8.57999992  55.13000107
C     6.17999983   7.62000036  55.90000153
H     5.60481787   8.47212219  55.53784943
H    10.77999973   7.63000011  53.50999832
H    11.73999977   9.81000042  57.93000031
H     9.55000019   9.52999973  58.63999939
H     7.09000015   8.69999981  58.15000153
H     8.38999939   7.37999964  54.31999969
H    16.53000069   7.97999954  54.33000183
H     5.63000011   7.14999962  56.72999954
H     6.19000006   6.85999966  55.11000061
S    13.71999931   6.01000023  50.96000290
C    11.06999969   5.66999960  51.65000153
C    12.38000011   5.40000010  51.95000076
C    12.92000008   4.76999998  53.11000061
C    11.97000027   4.21000004  53.95000076
C    10.59000015   4.35999966  53.66000366
C     9.57999992   3.75999975  54.47000122
C     8.23999977   3.88999987  54.20999908
C     7.78999996   4.59000015  53.06000137
C     8.71999931   5.29999971  52.34000397
C    10.11999989   5.19999981  52.58999634
C    14.34999943   4.92000008  53.29999924
C    14.92000008   5.63000011  52.21000290
C    16.28000069   5.92000008  52.21000290
C     6.30999994   4.76999998  52.78999710
H     6.11086702   4.47841263  51.75877380
H    10.70000076   6.15000010  50.73999786
H    12.43999958   3.63999987  54.75000000
H     9.85000038   3.19999981  55.35999680
H     7.55000019   3.45000005  54.93000031
H     8.39999962   5.96000004  51.53999710
H    16.84000015   6.44000006  51.44000244
H     5.75999975   4.13000011  53.48999786
H     6.05000019   5.80999947  53.01000214
S    17.61000061   4.32999992  55.65999985
C    20.27000046   4.99000025  55.00999832
C    18.93000031   5.05999994  54.72000122
C    18.45000076   5.63000011  53.48999786
C    19.37000084   6.23000050  52.67000198
C    20.76000023   6.05999994  52.88000107
C    21.70000076   6.54999971  51.91999817
C    23.05999947   6.37000036  52.11000061
C    23.54999924   5.86000013  53.33000183
C    22.65000153   5.47999954  54.29999924
C    21.24000168   5.49000025  54.10999680
C    17.01000023   5.46999979  53.30999756
C    16.42000008   4.88000011  54.45999908
C    15.11999989   4.41000032  54.34999847
C    25.00999832   5.51999998  53.53000259
H    25.34256554   5.90917110  54.49231339
H    20.52000046   4.48000002  55.93999863
H    19.03000069   6.76999998  51.79000092
H    21.28000069   7.11000013  51.10000229
H    23.78999901   6.61999989  51.35000229
H    23.01000214   4.88000011  55.13999939
H    14.60999966   3.75000000  55.05000305
H    25.65000153   5.89999962  52.71999741
H    25.10000038   4.42000008  53.60000229
