96

S    17.13000107   9.30000019  58.68000031
C    19.81999969   9.22999954  57.90999985
C    18.51000023   8.88000011  57.64999771
C    18.17000008   8.28999996  56.38999939
C    19.12999916   8.05999947  55.41999817
C    20.46999931   8.39999962  55.70000076
C    21.61000061   8.22000027  54.86000061
C    22.89999962   8.56999969  55.19000244
C    23.15999985   9.23999977  56.42000198
C    22.13000107   9.52999973  57.27000427
C    20.81999969   9.07999992  56.91999817
C    16.72999954   8.19999981  56.22000122
C    16.07999992   8.71999931  57.36999893
C    14.70000076   8.75000000  57.49000168
C    24.54999924   9.64999962  56.86000061
H    24.89234161   8.95105362  57.62313461
H    20.05000114   9.81999969  58.79000092
H    18.94000053   7.63000011  54.43999863
H    21.42000008   7.73000002  53.90999603
H    23.71000099   8.22000027  54.56999969
H    22.25000000  10.14000034  58.16999817
H    14.19000053   9.15999985  58.36000061
H    25.15000153   9.59000015  55.93999863
H    24.36000061  10.67999935  57.15999985
S    13.45000076   7.42000008  53.95999908
C    10.72000027   7.60999966  54.72999954
C    12.05000019   7.88999987  54.93999863
C    12.46999931   8.42000008  56.20999908
C    11.51999950   8.71000004  57.16999817
C    10.18000031   8.27000046  57.02000046
C     9.15999985   8.55000019  57.97000122
C     7.83999968   8.32999992  57.63999939
C     7.42999983   7.69000006  56.44000244
C     8.38000011   7.50000000  55.45999908
C     9.75000000   7.75000000  55.75000000
C    13.92000008   8.42000008  56.38000107
C    14.56999969   7.82000017  55.27000046
C    15.95000076   7.69999981  55.17000198
C     5.96000004   7.48000050  56.18000031
H     5.57592487   8.02766228  55.31938934
H    10.44999981   7.28999996  53.72000122
H    11.84000015   9.22000027  58.06999969
H     9.52999973   9.09000015  58.83999634
H     7.11999989   8.82000065  58.27999878
H     8.07999992   7.23999977  54.43999863
H    16.34000015   7.26000023  54.26000214
H     5.38000011   7.69000006  57.09000015
H     5.80999947   6.40999985  56.00000000
S    13.43000031   5.60999966  50.83000183
C    10.72999954   5.19999981  51.55000305
C    12.06999969   5.09000015  51.84000015
C    12.51999950   4.32000017  52.95999908
C    11.61999893   3.82999992  53.88000107
C    10.22999954   4.02999973  53.68999863
C     9.19999981   3.63000011  54.58000183
C     7.86999989   3.88000011  54.36999893
C     7.44000006   4.44000006  53.13999939
C     8.39999962   4.86000013  52.25999832
C     9.80000019   4.63999987  52.45999908
C    13.96999931   4.39000034  53.13999939
C    14.59000015   5.01999950  52.04000092
C    15.95000076   5.31000042  51.95999908
C     6.01000023   4.88999987  52.90999985
H     5.56118631   4.38419437  52.05511475
H    10.38000011   5.82999992  50.72999954
H    11.84000015   3.33999991  54.82999802
H     9.44999981   3.09999990  55.50000000
H     7.17999983   3.76999998  55.20999908
H     8.09000015   5.35000038  51.33999634
H    16.31999969   5.60999966  50.98999786
H     5.38000011   4.79999971  53.80000305
H     6.07999992   5.97000027  52.71999741
S    17.26000023   3.78999996  55.41999817
C    19.96000099   4.26000023  54.68000031
C    18.60999870   4.42999983  54.47000122
C    18.18000031   4.99000025  53.22999954
C    19.12999916   5.53999996  52.38999939
C    20.52000046   5.56999969  52.68000031
C    21.50000000   6.15000010  51.81999969
C    22.84000015   6.02999973  52.12999725
C    23.23999786   5.31000042  53.27999878
C    22.32999992   4.77999973  54.16999817
C    20.94000053   4.90999985  53.88000107
C    16.73999977   4.88000011  53.04000092
C    16.13999939   4.15000010  54.09999847
C    14.77000046   3.91000009  54.18000031
C    24.70999908   5.00999975  53.47999954
H    25.05762482   5.41438055  54.43064880
H    20.31999969   3.74000025  55.56999969
H    18.64999962   5.86999989  51.47999573
H    21.15999985   6.30999994  50.80999756
H    23.48999977   6.38999987  51.33999634
H    22.56999969   4.15999985  55.01999664
H    14.34999943   3.38000011  55.02999878
H    25.20000076   5.38999987  52.57999802
H    24.90999985   3.93000007  53.53000259
