96

S    16.61999893   9.26999950  58.97999573
C    19.26000023   9.43000031  58.09999847
C    17.95999908   9.07999992  57.84000015
C    17.59000015   8.61999989  56.52999878
C    18.61999893   8.38999939  55.63999939
C    19.96999931   8.75000000  55.84999847
C    21.07000160   8.52999973  54.98000336
C    22.37999916   8.76000023  55.34000015
C    22.67999840   9.28999996  56.62000275
C    21.64999962   9.55000019  57.50000000
C    20.29000092   9.35000038  57.11999893
C    16.13999939   8.65999985  56.46999741
C    15.47000027   9.07999992  57.63999939
C    14.07999992   9.06999969  57.70999908
C    24.06999969   9.81000042  56.90999985
H    24.50477982   9.41798592  57.82945251
H    19.50000000   9.75000000  59.10999680
H    18.32999992   7.73000002  54.82999802
H    20.98999977   7.97999954  54.03999710
H    23.15000153   8.48999977  54.61999893
H    21.87000084  10.03000069  58.44999695
H    13.67000008   9.13999939  58.70999908
H    24.84000015   9.72000027  56.12999725
H    23.88999939  10.88000107  57.05999756
S    12.90999985   8.09000015  54.01000214
C    10.24000072   7.81000042  54.75000000
C    11.51000023   8.22000027  55.08999634
C    11.87000084   8.64000034  56.40999603
C    10.86999989   8.53999996  57.36999893
C     9.52999973   8.23000050  57.05999756
C     8.50000000   8.11999989  58.04000092
C     7.20000029   7.90999985  57.65999603
C     6.86999989   7.51999950  56.33999634
C     7.86000013   7.53000021  55.38000107
C     9.21000004   7.79999971  55.72999954
C    13.28999996   8.89000034  56.56000137
C    13.96999931   8.45000076  55.40000153
C    15.34999943   8.28999996  55.37000275
C     5.46000004   7.07000017  56.00999832
H     5.02702188   7.73721266  55.26470947
H    10.10000038   7.30999994  53.79000092
H    11.16000080   8.73999977  58.40000153
H     8.78999996   8.38000011  59.06000137
H     6.34000015   8.00000000  58.33000183
H     7.68000031   7.21000004  54.36000061
H    15.80999947   7.94000053  54.45000076
H     4.79999971   6.98999977  56.88000107
H     5.61999989   6.05000019  55.65000153
S    16.68000031   9.82999992  52.45999908
C    19.37000084   9.71000004  51.97000122
C    18.12000084   9.38000011  51.51000214
C    17.79999924   8.89999962  50.20999908
C    18.86000061   8.64000034  49.36000061
C    20.17999840   8.88000011  49.80999756
C    21.30000114   8.47000027  49.05000305
C    22.60000038   8.82999992  49.33000183
C    22.77000046   9.72999954  50.40999985
C    21.76000214  10.03000069  51.30000305
C    20.43999863   9.57999992  51.04000092
C    16.35000038   8.80999947  50.02999878
C    15.62000084   9.35000038  51.11999893
C    14.23999977   9.52000046  51.04000092
C    24.07999992  10.39999962  50.72999954
H    24.58995438   9.83338356  51.50909805
H    19.62000084  10.21999931  52.90000153
H    18.70000076   8.30000019  48.34000015
H    21.07999992   8.00000000  48.09000015
H    23.39999962   8.50000000  48.67000198
H    21.86000061  10.82999992  52.02999878
H    13.76000023   9.82999992  51.95999908
H    24.61000061  10.50000000  49.78000259
H    23.88000107  11.42000008  51.06999969
S    13.09999943   7.88000011  47.64999771
C    10.36000061   8.10999966  48.22999954
C    11.67000008   8.19999981  48.64999771
C    12.09000015   8.76999950  49.89999771
C    11.10999966   8.97999954  50.86000061
C     9.76000023   8.63000011  50.59999847
C     8.78999996   8.78000069  51.63000107
C     7.49000025   8.36999989  51.43000031
C     7.04999971   8.13000011  50.10000229
C     8.00000000   8.07999992  49.10999680
C     9.39999962   8.26000023  49.26000214
C    13.52000046   9.00000000  49.95999908
C    14.26000023   8.46000004  48.87000275
C    15.64000034   8.38000011  48.89999771
C     5.65000010   7.60999966  49.89999771
H     5.18718433   8.20097923  49.10965347
H    10.18000031   7.71000004  47.23999786
H    11.33999920   9.46000004  51.81000137
H     9.06999969   9.15999985  52.61000061
H     6.80999994   8.22000027  52.25999832
H     7.77999973   7.76000023  48.09000015
H    16.15999985   8.02999973  48.01000214
H     5.09999990   7.55999994  50.84999847
H     5.59000015   6.57999992  49.52000046
