96

S    17.14999962   9.78999996  58.61999893
C    19.80999947  10.01999950  57.84999847
C    18.56999969   9.48000050  57.60000229
C    18.25000000   9.01000023  56.29000092
C    19.32999992   8.76000023  55.45999908
C    20.66999817   9.06000042  55.79999924
C    21.68999863   8.78000069  54.85000229
C    22.96999931   9.11999989  55.25000000
C    23.29000092   9.89999962  56.38000107
C    22.26000023  10.25000000  57.22999954
C    20.93000031   9.81000042  57.00000000
C    16.79999924   8.89000034  56.12999725
C    16.09000015   9.23999977  57.30999756
C    14.70000076   9.22999954  57.29999924
C    24.72999954  10.27999973  56.65999985
H    25.16530037   9.58780003  57.38074493
H    19.92000008  10.67000008  58.72000122
H    19.11000061   8.25000000  54.52000046
H    21.45000076   8.28999996  53.92000198
H    23.78000069   8.88000011  54.56999969
H    22.44999886  10.81999969  58.13000107
H    14.22999954   9.44000053  58.26000214
H    25.23999977  10.36000061  55.68999863
H    24.70999908  11.30000019  57.05999756
S    13.50999928   8.36000061  53.63999939
C    10.85999966   8.10999966  54.47000122
C    12.17000008   8.34999943  54.79999924
C    12.50000000   8.71000004  56.13999939
C    11.51999950   8.93999958  57.09000015
C    10.15999985   8.78000069  56.75000000
C     9.11999989   8.97000027  57.70999908
C     7.85000038   8.52999973  57.38999939
C     7.53999996   8.10999966  56.06999969
C     8.51000023   7.90999985  55.12000275
C     9.82999992   8.34999943  55.41999817
C    13.94999981   8.89000034  56.18000031
C    14.65000057   8.64000034  54.97000122
C    16.03000069   8.48999977  55.04000092
C     6.09000015   7.85000038  55.68999863
H     5.76851082   8.08575916  54.67552185
H    10.52000046   7.72000027  53.50999832
H    11.61000061   9.28999996  58.11000061
H     9.35999966   9.31999969  58.70999908
H     7.13999987   8.69000053  58.18999863
H     8.27999973   7.46000004  54.15999985
H    16.54999924   8.10000038  54.15999985
H     5.40000010   8.38999939  56.35000229
H     5.92999983   6.77999973  55.91999817
S    13.90999985   5.98999977  50.98999786
C    11.23000050   5.46999979  51.62000275
C    12.56000042   5.36000013  51.95000076
C    13.05999947   4.67999983  53.11000061
C    12.10000038   4.21999979  54.00000000
C    10.72999954   4.32000017  53.68000031
C     9.81000042   3.72000003  54.59000015
C     8.47999954   3.71000004  54.26000214
C     7.99000025   4.35999966  53.09000015
C     8.85999966   4.90000010  52.18000031
C    10.26000023   4.79999971  52.41000366
C    14.50000000   4.85000038  53.27000046
C    15.06999969   5.69000006  52.29000092
C    16.39999962   6.10000038  52.36999893
C     6.48999977   4.50000000  52.95000076
H     6.11839724   4.27846766  51.94953156
H    10.98000050   6.14000034  50.79000092
H    12.39999962   3.72000003  54.92000198
H    10.19000053   3.17999983  55.45000076
H     7.82999992   3.17000008  54.93999863
H     8.45000076   5.46000004  51.33999634
H    16.81999969   6.43000031  51.42000198
H     6.03999996   3.95000005  53.77999878
H     6.23000050   5.53999996  53.20999908
S    17.67000008   4.23000002  55.63999939
C    20.36999893   4.67000008  54.98000336
C    19.04000092   4.90999985  54.73999786
C    18.60999870   5.68000031  53.61999893
C    19.56999969   6.14000034  52.74000168
C    20.95000076   5.84000015  52.85999680
C    22.00000000   6.34000015  52.04000092
C    23.34000015   6.10000038  52.27000427
C    23.74000168   5.35000038  53.40999985
C    22.73999977   4.92000008  54.23999786
C    21.35000038   5.17000008  54.06999969
C    17.15999985   5.71000004  53.47999954
C    16.52000046   4.92000008  54.47000122
C    15.19000053   4.51999998  54.45000076
C    25.20000076   5.07999992  53.69999695
H    25.54275131   5.55128336  54.62114334
H    20.72000122   4.00999975  55.77000046
H    19.25000000   6.71000004  51.86999893
H    21.64999962   6.88000011  51.17000198
H    24.07999992   6.57999992  51.63999939
H    23.06999969   4.34999990  55.11000061
H    14.65000057   4.05999994  55.27000046
H    25.69999886   5.58000040  52.85999680
H    25.51000214   4.02999973  53.72000122
