96

S    16.77999878   9.34000015  58.87000275
C    19.55999947   9.21000004  58.27000046
C    18.23999977   8.97999954  57.94000244
C    17.88999939   8.46000004  56.65999985
C    18.90999985   8.18000031  55.76000214
C    20.26000023   8.38000011  56.12999725
C    21.31999969   8.28999996  55.18000031
C    22.63000107   8.56000042  55.52000046
C    22.93999863   9.17000008  56.77000046
C    21.96000099   9.35000038  57.71999741
C    20.62999916   8.96000004  57.38999939
C    16.45000076   8.48999977  56.40999603
C    15.70000076   8.92000008  57.52999878
C    14.30999947   9.04999924  57.55000305
C    24.33000183   9.68000031  57.08000183
H    25.01299095   8.99701023  57.58512497
H    19.63999939   9.72999954  59.22000122
H    18.61999893   8.05999947  54.72999954
H    21.05999947   8.01999950  54.15999985
H    23.39999962   8.43999958  54.77000427
H    22.19000053   9.96000004  58.59000397
H    13.78999901   9.56999969  58.36000061
H    24.86000061   9.96000004  56.16000366
H    24.25000000  10.60999966  57.63999939
S    13.15999985   7.73000002  54.02999878
C    10.43000031   7.79999971  54.73999786
C    11.75000000   7.97999954  55.06999969
C    12.15000057   8.42000008  56.38000107
C    11.13000011   8.60000038  57.29999924
C     9.76000023   8.51000023  56.97999954
C     8.71000004   8.67000008  57.94000244
C     7.40000010   8.60999966  57.52999878
C     7.03999996   8.01000023  56.29000092
C     8.01999950   7.81000042  55.34999847
C     9.39000034   8.01000023  55.68000031
C    13.59000015   8.59000015  56.45000076
C    14.30999947   8.17000008  55.30000305
C    15.70000076   8.06999969  55.30000305
C     5.61999989   7.60999966  55.97000122
H     5.13538980   8.23714256  55.22170639
H    10.08999920   7.51999950  53.75000000
H    11.51999950   9.01000023  58.22999954
H     9.03999996   8.85000038  58.95000076
H     6.67999983   8.86999989  58.30999756
H     7.82000017   7.46000004  54.34000015
H    16.10999870   7.73000002  54.36000061
H     4.99000025   7.81000042  56.84000015
H     5.51999998   6.56000042  55.63999939
S    17.23999977   9.94999981  52.90999985
C    19.95000076   9.81999969  52.25000000
C    18.64999962   9.46000004  51.95999908
C    18.22999954   8.84000015  50.75000000
C    19.19999886   8.60000038  49.79000092
C    20.48999977   9.13999939  49.95999908
C    21.47999954   9.00000000  48.95000076
C    22.81999969   9.25000000  49.20000076
C    23.22000122   9.68999958  50.47999954
C    22.29999924   9.94000053  51.47999573
C    20.93000031   9.61999989  51.25000000
C    16.77999878   8.82000065  50.56999969
C    16.10000038   9.39000034  51.66999817
C    14.72000027   9.56999969  51.59999847
C    24.69000053   9.92000008  50.72999954
H    25.04457664   9.24630451  51.51007080
H    20.15999985  10.21000004  53.23999786
H    18.98999977   8.02999973  48.88999939
H    21.11999893   8.84000015  47.94000244
H    23.46999931   9.26000023  48.33000183
H    22.65999985  10.39000034  52.39999771
H    14.26000023  10.11000061  52.42000198
H    25.25000000   9.84000015  49.79999924
H    24.90999985  10.92000008  51.11999893
S    13.55000019   8.06999969  48.13999939
C    10.82999992   8.15999985  48.88999939
C    12.15000057   8.47999954  49.15000153
C    12.48999977   8.94999981  50.45000076
C    11.47999954   9.30000019  51.32999802
C    10.11999989   9.02000046  51.11999893
C     9.09000015   9.26000023  52.06999969
C     7.79999971   8.85999966  51.79999924
C     7.55000019   8.10000038  50.63000107
C     8.53999996   7.76000023  49.73999786
C     9.85999966   8.27000046  49.91000366
C    13.94000053   9.02999973  50.58000183
C    14.65000057   8.47000027  49.47999954
C    16.03000069   8.39999962  49.45999908
C     6.09000015   7.76999998  50.40000153
H     5.59786415   8.39051914  49.65109634
H    10.47999954   7.76000023  47.94000244
H    11.77999973   9.86999989  52.21000290
H     9.36999989   9.67000008  53.04000092
H     7.02000046   9.13999939  52.50000000
H     8.26000023   7.23999977  48.82999802
H    16.47999954   8.19000053  48.50000000
H     5.55000019   7.82999992  51.35000229
H     6.11999989   6.74000025  50.00999832
