96

S    16.79000092  10.07999992  58.44999695
C    19.47000122  10.06000042  57.83000183
C    18.20999908   9.63000011  57.49000168
C    17.85000038   9.02999973  56.24000168
C    18.85000038   8.75000000  55.33000183
C    20.17000008   9.19999981  55.56999969
C    21.17000198   9.02999973  54.58000183
C    22.47999954   9.28999996  54.92000198
C    22.76000023  10.05000019  56.09000397
C    21.80000114  10.26999950  57.04999924
C    20.45999908   9.84000015  56.83000183
C    16.40999985   9.04999924  56.03000259
C    15.70000076   9.51000023  57.15999985
C    14.30999947   9.48999977  57.23999786
C    24.15999985  10.46000004  56.45999908
H    24.61501503   9.77036667  57.17095947
H    19.85000038  10.62000084  58.68000031
H    18.64999962   8.32999992  54.34999847
H    20.86000061   8.55000019  53.66000366
H    23.26999855   8.84000015  54.31999969
H    21.98999786  10.71000004  58.02000046
H    13.94999981   9.63000011  58.26000214
H    24.71999931  10.50000000  55.52000046
H    23.95999908  11.44000053  56.90999985
S    13.19000053   7.82999992  53.85000229
C    10.51000023   7.62000036  54.62999725
C    11.77000046   8.10999966  54.86999893
C    12.10999966   8.76000023  56.10000229
C    11.14999962   8.92000008  57.09000015
C     9.84000015   8.46000004  56.81000137
C     8.75000000   8.63000011  57.70999908
C     7.46999979   8.25000000  57.39999771
C     7.11000013   7.57000017  56.19999695
C     8.14999962   7.39000034  55.31999969
C     9.48999977   7.77999973  55.59999847
C    13.53999996   9.01000023  56.18000031
C    14.27999973   8.50000000  55.07999802
C    15.67000008   8.56999969  54.94999695
C     5.65000010   7.30000019  55.89000320
H     5.27903605   7.86358023  55.03392792
H    10.42000008   7.03000021  53.72000122
H    11.36999989   9.32999992  58.08000183
H     8.97999954   9.11999989  58.66000366
H     6.74000025   8.26000023  58.20000076
H     7.90000010   6.96000004  54.36000061
H    16.10999870   8.10000038  54.08000183
H     4.97000027   7.40000010  56.75000000
H     5.65999985   6.25000000  55.59999847
S    17.22999954  10.18000031  52.72999573
C    19.86999893  10.55999947  52.09000015
C    18.63000107  10.15999985  51.63999939
C    18.39999962   9.57999992  50.35999680
C    19.44000053   9.39999962  49.45999908
C    20.65999985  10.03999901  49.77000427
C    21.71999931  10.25000000  48.85000229
C    22.96999931  10.72000027  49.20000076
C    23.23999786  11.05000019  50.56000137
C    22.20999908  10.93000031  51.45999908
C    20.88999939  10.50000000  51.11000061
C    16.97999954   9.26000023  50.27000046
C    16.21999931   9.48999977  51.45000076
C    14.84000015   9.39000034  51.50000000
C    24.57999992  11.57999992  51.02000427
H    25.06523323  10.93777847  51.75498581
H    19.95000076  11.00000000  53.08000183
H    19.30999947   8.93000031  48.48999786
H    21.54999924   9.98000050  47.81000137
H    23.71999931  10.57000065  48.43999863
H    22.25000000  11.23000050  52.50000000
H    14.34000015   9.70000076  52.42000198
H    25.22999954  11.69000053  50.14999771
H    24.51999855  12.58999920  51.45000076
S    13.89000034   8.78999996  47.70000076
C    11.13000011   8.51000023  48.25000000
C    12.39999962   8.82000065  48.67000198
C    12.74000072   9.17000008  50.01999664
C    11.75000000   9.31999969  50.97999954
C    10.43000031   8.97999954  50.59000015
C     9.40999985   8.96000004  51.59000015
C     8.11999989   8.63000011  51.25000000
C     7.76999998   8.30000019  49.92000198
C     8.76000023   8.26000023  48.95999908
C    10.11000061   8.61999989  49.23999786
C    14.17000008   9.18000031  50.28999710
C    14.93000031   8.88000011  49.13000107
C    16.31999969   8.92000008  49.08000183
C     6.32999992   7.92999983  49.62999725
H     5.87917805   8.55256367  48.85716248
H    10.97000027   8.17000008  47.23999786
H    11.95000076   9.51000023  52.02999878
H     9.61999989   9.26000023  52.61000061
H     7.34000015   8.59000015  52.01000214
H     8.55000019   8.07999992  47.90999985
H    16.86000061   8.71000004  48.16999817
H     5.79999971   7.94000053  50.59000015
H     6.23000050   6.90999985  49.23999786
