96

S    16.62999916  10.19000053  58.61000061
C    19.31999969  10.19000053  57.95000076
C    18.04000092   9.80000019  57.61000061
C    17.73999977   9.23999977  56.32999802
C    18.76000023   8.94999981  55.44000244
C    20.10000038   9.35000038  55.68999863
C    21.18999863   9.19999981  54.78000259
C    22.46999931   9.52999973  55.13000107
C    22.70999908  10.22999954  56.33999634
C    21.63000107  10.47000027  57.15999985
C    20.31999969   9.96999931  56.95999908
C    16.31000137   9.02999973  56.18999863
C    15.60999966   9.61999989  57.27000427
C    14.22999954   9.76000023  57.35000229
C    24.05999947  10.80999947  56.70999908
H    24.63597679  10.17002487  57.37841797
H    19.47999954  10.80000019  58.82999802
H    18.47999954   8.52000046  54.47999954
H    20.85000038   8.96000004  53.76999664
H    23.29000092   9.38000011  54.43000031
H    21.80999947  11.07999992  58.04999924
H    13.69999981  10.25000000  58.15999985
H    24.69000053  10.93999958  55.83000183
H    23.90000153  11.73999977  57.28000259
S    13.12000084   8.27000046  53.77999878
C    10.43000031   8.13000011  54.52000046
C    11.69999981   8.59000015  54.79999924
C    12.09000015   9.10000038  56.06999969
C    11.10000038   9.32999992  57.01000214
C     9.76000023   9.02999973  56.68000031
C     8.73000050   9.19000053  57.63999939
C     7.42000008   8.82000065  57.43000031
C     7.09999990   8.15999985  56.22000122
C     8.02999973   8.05999947  55.20999908
C     9.38000011   8.43999958  55.41999817
C    13.53000069   9.18000031  56.29000092
C    14.18000031   8.63000011  55.14999771
C    15.57000065   8.50000000  55.13000107
C     5.73000002   7.57000017  55.94999695
H     5.13835049   8.16164970  55.25142670
H    10.21000004   7.59999990  53.59000397
H    11.36000061   9.71000004  57.98999786
H     9.04999924   9.68000031  58.54999924
H     6.61000013   8.76999950  58.15999985
H     7.73999977   7.60999966  54.26000214
H    15.98999977   8.09000015  54.20999908
H     5.23000002   7.60999966  56.93000031
H     5.86999989   6.56000042  55.56000137
S    16.63999939  10.55999947  52.57999802
C    19.38999939  10.71000004  51.84999847
C    18.11000061  10.26000023  51.63000107
C    17.76000023   9.75000000  50.34000015
C    18.81000137   9.53999996  49.45999908
C    20.15999985   9.90999985  49.68999863
C    21.28000069   9.72000027  48.83999634
C    22.53999901  10.25000000  49.02000046
C    22.84000015  10.73999977  50.31999969
C    21.80999947  10.90999985  51.22000122
C    20.45999908  10.57000065  50.93000031
C    16.32999992   9.76000023  50.07999802
C    15.57999992  10.21000004  51.18999863
C    14.19999981  10.05000019  51.26999664
C    24.27000046  11.18000031  50.54000092
H    24.69545555  10.68363380  51.41218567
H    19.63000107  11.30000019  52.72999573
H    18.48999977   9.06999969  48.53000259
H    20.97999954   9.26999950  47.88999939
H    23.38000107  10.07999992  48.34999847
H    21.97000122  11.51999950  52.09999847
H    13.66000080  10.21000004  52.19999695
H    24.93999863  11.06999969  49.68000031
H    24.37999916  12.23999977  50.80999756
S    13.25000000   8.56000042  47.69000244
C    10.59999943   8.19999981  48.43999863
C    11.84000015   8.69999981  48.75999832
C    12.10999966   9.39999962  49.99000168
C    11.09000015   9.53999996  50.90000153
C     9.78999996   9.06000042  50.61999893
C     8.76000023   9.06999969  51.59999847
C     7.49000025   8.60999966  51.32999802
C     7.25000000   7.95000029  50.10000229
C     8.26000023   7.78999996  49.19000244
C     9.56999969   8.31999969  49.40000153
C    13.53999996   9.68000031  50.10000229
C    14.27999973   9.22999954  48.96999741
C    15.67000008   9.19999981  48.96999741
C     5.84000015   7.51999950  49.73999786
H     5.47723866   8.08192348  48.87933350
H    10.53999996   7.65999985  47.49000168
H    11.36000061   9.77000046  51.93000031
H     8.97000027   9.48000050  52.58999634
H     6.61000013   8.69999981  51.95000076
H     8.13000011   7.20000029  48.29000092
H    16.26000023   8.85999966  48.13000107
H     5.21000004   7.57999992  50.63000107
H     5.95000029   6.47000027  49.45999908
