96

S    16.69000053   9.13000011  58.63999939
C    19.40999985   8.97000027  58.02999878
C    18.12000084   8.64000034  57.70000076
C    17.79000092   8.21000004  56.37000275
C    18.81000137   8.09000015  55.45999908
C    20.13999939   8.38999939  55.81999969
C    21.17000198   8.34000015  54.82999802
C    22.40999985   8.85000038  55.11000061
C    22.72000122   9.43000031  56.36000061
C    21.76000214   9.52000046  57.35000229
C    20.45999908   9.01000023  57.08000183
C    16.36999893   8.36000061  56.07999802
C    15.65999985   8.80000019  57.22999954
C    14.29999924   9.04999924  57.29000092
C    24.07999992  10.01999950  56.69000244
H    24.58693504   9.36312771  57.39685059
H    19.55000114   9.68000031  58.85000229
H    18.65999985   7.88000011  54.40000153
H    20.86000061   8.19999981  53.79000092
H    23.12000084   9.06999969  54.31000137
H    21.98999786   9.85000038  58.36000061
H    13.82999992   9.26999950  58.23999786
H    24.71999931  10.06000042  55.79999924
H    24.01000023  11.05000019  57.04999924
S    13.14000034   7.49000025  53.83999634
C    10.44000053   7.30000019  54.72000122
C    11.73999977   7.71000004  54.89999771
C    12.15000057   8.40999985  56.07999802
C    11.18999958   8.76999950  57.01000214
C     9.86999989   8.28999996  56.88000107
C     8.80999947   8.73999977  57.71999741
C     7.49000025   8.46000004  57.45999908
C     7.11999989   7.62000036  56.38000107
C     8.10000038   7.16000032  55.52000046
C     9.46000004   7.53000021  55.72999954
C    13.59000015   8.57999992  56.17000198
C    14.29999924   8.17000008  55.00999832
C    15.67000008   7.99000025  54.93000031
C     5.69999981   7.16000032  56.14999771
H     5.24122047   7.87684250  55.46899796
H    10.14999962   6.80999994  53.80000305
H    11.49000072   9.38000011  57.85999680
H     9.03999996   9.39000034  58.55999756
H     6.69000053   8.86999989  58.06999969
H     7.92000008   6.53999996  54.65000153
H    16.03000069   7.67000008  53.95000076
H     5.13000011   7.00999975  57.06999969
H     5.68000031   6.19000006  55.63999939
S    13.30999947   5.59999990  50.84000015
C    10.64000034   5.21000004  51.69000244
C    11.98999977   4.97000027  51.84000015
C    12.43999958   4.30000019  53.02000046
C    11.56999969   3.86000013  54.01000214
C    10.18000031   4.07999992  53.83999634
C     9.19000053   3.78999996  54.81999969
C     7.86000013   3.75999975  54.50000000
C     7.40999985   4.23000002  53.23999786
C     8.31999969   4.74000025  52.34000397
C     9.72000027   4.61000013  52.58999634
C    13.89000034   4.36999989  53.11999893
C    14.50000000   4.99000025  52.00000000
C    15.84000015   5.36000013  52.09999847
C     5.92000008   4.34999990  53.00000000
H     5.59310341   4.12970018  51.98377991
H    10.24000072   5.88999987  50.94999695
H    12.00000000   3.63999987  54.98000336
H     9.50000000   3.44000006  55.79999924
H     7.23999977   3.32999992  55.27999878
H     7.95000029   5.13999987  51.39999771
H    16.25000000   5.97000027  51.31000137
H     5.40999985   3.68999982  53.70999908
H     5.63000011   5.38999987  53.20999908
S    17.13000107   3.86999989  55.56999969
C    19.82999992   4.51000023  54.93999863
C    18.47999954   4.61000013  54.68000031
C    17.97999954   5.23000002  53.48999786
C    18.93000031   5.88000011  52.72999573
C    20.31999969   5.68000031  52.90999985
C    21.28000069   6.26999950  52.02999878
C    22.63999939   6.10000038  52.21000290
C    23.12999916   5.46999979  53.37999725
C    22.22999954   4.98000002  54.29999924
C    20.82999992   5.05999994  54.09999847
C    16.59000015   4.90999985  53.20000076
C    15.97000027   4.21000004  54.26000214
C    14.60999966   3.94000006  54.23999786
C    24.59000015   5.09000015  53.50999832
H    25.06541443   5.60089350  54.34729767
H    20.07999802   3.93000007  55.81999969
H    18.59000015   6.34999990  51.81000137
H    20.92000008   6.65000010  51.07999802
H    23.31000137   6.42000008  51.42000198
H    22.53000069   4.46999979  55.20999908
H    14.07999992   3.55999994  55.11000061
H    25.20000076   5.44000053  52.67000198
H    24.71999931   4.01999998  53.72000122
