96

S    16.62999916   9.53999996  58.75000000
C    19.40000153   9.50000000  58.06999969
C    18.09999847   9.10000038  57.87000275
C    17.80999947   8.43000031  56.63000107
C    18.79999924   8.18000031  55.70000076
C    20.15000153   8.50000000  55.96000290
C    21.17000198   8.28999996  54.99000168
C    22.49000168   8.56999969  55.26000214
C    22.80999947   9.17000008  56.51000214
C    21.84999847   9.40999985  57.47000122
C    20.48000145   9.10000038  57.22999954
C    16.39000130   8.27999973  56.38999939
C    15.64000034   8.80999947  57.47000122
C    14.26000023   8.75000000  57.58999634
C    24.23999977   9.55999947  56.81000137
H    24.74407578   8.82873440  57.44187164
H    19.68000031  10.14999962  58.88999939
H    18.47999954   7.68000031  54.78000259
H    20.81999969   7.78999996  54.09000015
H    23.29999924   8.34000015  54.58000183
H    21.91999817  10.01000023  58.36999893
H    13.81000042   9.21000004  58.46000290
H    24.71999931   9.73999977  55.84999847
H    24.14999962  10.54999924  57.25999832
S    13.15000057   7.20000029  54.09999847
C    10.40999985   7.11000013  54.79000092
C    11.71000004   7.42999983  55.11000061
C    12.09000015   8.00000000  56.37000275
C    11.07999992   8.23000050  57.29000092
C     9.76000023   7.78999996  57.02999878
C     8.71000004   8.01000023  57.97000122
C     7.40999985   7.64999962  57.70000076
C     7.03999996   7.07999992  56.45000076
C     8.03999996   6.80999994  55.54999924
C     9.39000034   7.20000029  55.77000046
C    13.52000046   8.19999981  56.52999878
C    14.23999977   7.75000000  55.38999939
C    15.62999916   7.75000000  55.33000183
C     5.60999966   6.67000008  56.18999863
H     5.18085814   7.29940796  55.41039276
H    10.29000092   6.53999996  53.87000275
H    11.23000050   8.69999981  58.26000214
H     9.01000023   8.48999977  58.88999939
H     6.57999992   7.78999996  58.39000320
H     7.77999973   6.34000015  54.59999847
H    16.15999985   7.30999994  54.50000000
H     5.09000015   6.63999987  57.15000153
H     5.73000002   5.68000031  55.73999786
S    13.48999977   5.31000042  50.91999817
C    10.88000107   4.50000000  51.55000305
C    12.22000027   4.53999996  51.88000107
C    12.67000008   4.02999973  53.13999939
C    11.82000065   3.48000002  54.09000015
C    10.44999981   3.42000008  53.75999832
C     9.52000046   2.94000006  54.72000122
C     8.17000008   3.08999991  54.48999786
C     7.69999981   3.60000014  53.26000214
C     8.57999992   4.05000019  52.29999924
C     9.98000050   4.01999998  52.52999878
C    14.11000061   4.23999977  53.23999786
C    14.70000076   4.94000006  52.15999985
C    16.03000069   5.33999968  52.11000061
C     6.25000000   3.89999986  52.95000076
H     5.90164423   3.65117431  51.94758606
H    10.47999954   5.05999994  50.70999908
H    12.20999908   3.05000019  55.00999832
H     9.90999985   2.56999993  55.66999817
H     7.48000050   2.77999997  55.27000046
H     8.19000053   4.61999989  51.45999908
H    16.35000038   5.89999962  51.24000168
H     5.47999954   3.42000008  53.57999802
H     6.17000008   4.97000027  53.15000153
S    17.35999870   3.81000018  55.54999924
C    20.03999901   4.30000019  54.89999771
C    18.71000099   4.50000000  54.61999893
C    18.30000114   5.13999987  53.40999985
C    19.27999878   5.64000034  52.57999802
C    20.65999985   5.42999983  52.81999969
C    21.70999908   5.88999987  51.97999954
C    23.02999878   5.75999975  52.34000397
C    23.38000107   5.13000011  53.56999969
C    22.42000198   4.63999987  54.43000031
C    21.05999947   4.79999971  54.05000305
C    16.86000061   5.00000000  53.18000031
C    16.23999977   4.41000032  54.31000137
C    14.92000008   3.98999977  54.36000061
C    24.80999947   4.69000006  53.81999969
H    25.19967270   4.97339773  54.79772186
H    20.22000122   3.81000018  55.86000061
H    18.97999954   6.09000015  51.63000107
H    21.57999992   6.35999966  51.00999832
H    23.74000168   6.10000038  51.59999847
H    22.70999908   4.28000021  55.40999985
H    14.59000015   3.42000008  55.20999908
H    25.43000031   5.03999996  52.98999786
H    24.79000092   3.60000014  53.68999863
