96

S    17.04000092   9.89000034  58.41999817
C    19.76000023   9.70000076  57.90999985
C    18.48999977   9.28999996  57.58999634
C    18.06999969   8.61999989  56.39999771
C    19.04999924   8.36000061  55.45000076
C    20.38999939   8.73000050  55.75000000
C    21.48999977   8.28999996  54.95999908
C    22.73999977   8.85999966  55.08999634
C    23.05999947   9.64999962  56.22000122
C    22.07999992   9.96000004  57.12999725
C    20.75000000   9.48000050  56.91999817
C    16.62999916   8.63000011  56.16000366
C    15.90999985   9.17000008  57.25999832
C    14.52000046   9.22999954  57.30999756
C    24.44999886  10.21000004  56.43000031
H    24.84115219   9.57704258  57.22653198
H    20.00000000  10.36999893  58.73000336
H    18.88000107   7.63999987  54.65999985
H    21.31000137   7.63999987  54.10999680
H    23.47999954   8.67000008  54.31999969
H    22.19000053  10.51000023  58.06999969
H    13.92000008   9.56999969  58.13999939
H    25.06000137  10.17000008  55.52000046
H    24.47999954  11.18999958  56.91999817
S    13.57999992   7.73999977  53.73000336
C    10.88999939   7.55999994  54.38999939
C    12.15999985   7.94000053  54.77000427
C    12.41000080   8.55000019  56.04000092
C    11.36999989   8.69000053  56.93999863
C    10.05000019   8.30000019  56.60999680
C     8.93999958   8.40999985  57.50999832
C     7.68000031   8.02999973  57.11999893
C     7.44000006   7.48000050  55.83000183
C     8.50000000   7.34000015  54.97000122
C     9.82999992   7.69999981  55.31999969
C    13.83999920   8.76000023  56.18000031
C    14.59000015   8.34999943  55.05000305
C    15.97000027   8.21000004  55.00000000
C     6.10000038   6.90000010  55.43000031
H     5.61622715   7.56163025  54.71145248
H    10.65000057   7.04999971  53.46000290
H    11.57999992   9.03999996  57.94000244
H     9.11000061   8.82999992  58.48999786
H     6.85999966   8.01999950  57.83000183
H     8.36000061   6.93000031  53.96999741
H    16.45000076   7.86999989  54.09000015
H     5.40000010   6.69000053  56.24000168
H     6.24000025   5.93999958  54.91000366
S    14.06999969   5.75000000  50.91999817
C    11.46000004   4.92999983  51.45999908
C    12.79000092   4.92000008  51.81999969
C    13.26000023   4.41000032  53.08000183
C    12.31999969   4.11999989  54.05000305
C    10.95000076   4.07999992  53.68000031
C    10.03000069   3.55999994  54.64000320
C     8.69999981   3.42000008  54.34000015
C     8.19999981   3.89999986  53.09999847
C     9.06999969   4.50000000  52.22000122
C    10.48999977   4.48000002  52.37999725
C    14.70000076   4.57999992  53.22999954
C    15.26999950   5.28999996  52.15000153
C    16.61999893   5.63000011  52.11999893
C     6.74000025   3.68999982  52.77000046
H     6.39211655   4.10888052  51.82574463
H    11.06999969   5.38999987  50.54999924
H    12.63000011   3.77999997  55.04000092
H    10.51000023   3.24000001  55.56000137
H     8.03999996   3.01999998  55.10000229
H     8.69000053   4.88000011  51.27999878
H    16.97000122   6.30999994  51.35000229
H     6.54999971   2.61000013  52.87000275
H     6.23000050   4.09999990  53.64999771
S    17.95999908   4.02999973  55.59000015
C    20.63999939   4.48000002  54.86999893
C    19.29999924   4.56999969  54.58000183
C    18.81000137   5.18000031  53.36999893
C    19.70999908   5.69000006  52.45999908
C    21.11000061   5.59999990  52.70000076
C    22.07999992   6.28999996  51.91999817
C    23.36999893   6.35999966  52.39999771
C    23.80000114   5.78000021  53.61999893
C    22.92000008   4.99000025  54.31000137
C    21.55999947   4.92000008  53.88000107
C    17.36999893   5.13000011  53.18999863
C    16.79999924   4.55000019  54.34999847
C    15.44000053   4.30000019  54.38999939
C    25.22000122   6.03999996  54.08000183
H    25.58461380   5.39656496  54.88071823
H    21.01000023   4.05000019  55.79999924
H    19.40999985   6.02999973  51.46999741
H    21.61999893   6.90999985  51.14999771
H    24.04000092   7.02000046  51.84999847
H    23.13999939   4.63000011  55.31000137
H    14.96000099   3.67000008  55.13999939
H    25.40999985   7.07999992  54.38999939
H    25.79000092   5.93999958  53.15000153
