96

S    17.02000046   9.44000053  59.05000305
C    19.76000023   9.40999985  58.53000259
C    18.48999977   9.07999992  58.11999893
C    18.19000053   8.64999962  56.79000092
C    19.23999977   8.38999939  55.91999817
C    20.52999878   8.89000034  56.24000168
C    21.56999969   8.96000004  55.27000046
C    22.80999947   9.46000004  55.59999847
C    23.12000084   9.82999992  56.93999863
C    22.11000061   9.82999992  57.88000107
C    20.81000137   9.34000015  57.56999969
C    16.76000023   8.64999962  56.52999878
C    16.00000000   9.09000015  57.63999939
C    14.60999966   9.11999989  57.64999771
C    24.54000092  10.18000031  57.31999969
H    24.87402916   9.66829300  58.22259521
H    19.93000031   9.82999992  59.52000046
H    19.03000069   8.09000015  54.89999771
H    21.35999870   8.67999935  54.23999786
H    23.62999916   9.44000053  54.88999939
H    22.34999847   9.92000008  58.93000031
H    14.06999969   9.26000023  58.57999802
H    25.22000122   9.90999985  56.51000214
H    24.75000000  11.25000000  57.38999939
S    13.69999981   7.77999973  54.02000046
C    10.93999958   8.00000000  54.38999939
C    12.20999908   8.19999981  54.87999725
C    12.53000069   8.64999962  56.19999695
C    11.47999954   8.93000031  57.04999924
C    10.15999985   8.69999981  56.59000015
C     9.09000015   8.64999962  57.51999664
C     7.76999998   8.39999962  57.23999786
C     7.46000004   8.01999950  55.90000153
C     8.48999977   7.90000010  54.99000168
C     9.85000038   8.23999977  55.26000214
C    13.96000004   8.78999996  56.45000076
C    14.73999977   8.34999943  55.34999847
C    16.11999893   8.31999969  55.33000183
C     6.11000013   7.49000025  55.48999786
H     5.62794876   8.10674286  54.73147583
H    10.71000004   7.42999983  53.48999786
H    11.50000000   9.26000023  58.09000015
H     9.35000038   8.73000050  58.57999802
H     7.13000011   8.28999996  58.11000061
H     8.27999973   7.57000017  53.97999573
H    16.80999947   7.97999954  54.54999924
H     5.50000000   7.39000034  56.38999939
H     6.21999979   6.50000000  55.01999664
S    17.46999931  10.01000023  52.76000214
C    20.20999908  10.10000038  52.15000153
C    18.94000053   9.68999958  51.81999969
C    18.57999992   9.07999992  50.56999969
C    19.61000061   8.88000011  49.66999817
C    20.95999908   9.15000057  50.00999832
C    21.98999786   9.04999924  49.02999878
C    23.28000069   9.51000023  49.19000244
C    23.57999992  10.13000011  50.43000031
C    22.57999802  10.39000034  51.33999634
C    21.25000000   9.89000034  51.20999908
C    17.14999962   9.11999989  50.33000183
C    16.38000107   9.57999992  51.43000031
C    15.01000023   9.75000000  51.35000229
C    24.96000099  10.62999916  50.79000092
H    25.49401855   9.85389423  51.33826065
H    20.36000061  10.72000027  53.02999878
H    19.40000153   8.56999969  48.64999771
H    21.73000145   8.64000034  48.06000137
H    23.97000122   9.44000053  48.36000061
H    22.78000069  10.97000027  52.23999786
H    14.39000034  10.06999969  52.18999863
H    25.51000214  11.03000069  49.93000031
H    24.77999878  11.50000000  51.44000244
S    14.15999985   8.22000027  47.71999741
C    11.39999962   8.14999962  48.29999924
C    12.68000031   8.47000027  48.67000198
C    12.89999962   9.10000038  49.93999863
C    11.87000084   9.26999950  50.84000015
C    10.53999996   8.92000008  50.47999954
C     9.44999981   8.98999977  51.38999939
C     8.15999985   8.67999935  51.00999832
C     7.92999983   8.09000015  49.73999786
C     8.97999954   7.96000004  48.85000229
C    10.29999924   8.36000061  49.18000031
C    14.32000065   9.28999996  50.21999741
C    15.06999969   8.82999992  49.10999680
C    16.46000099   8.80999947  49.15000153
C     6.51999998   7.76000023  49.29999924
H     6.16382837   8.36549187  48.46656036
H    11.25000000   7.77999973  47.29000092
H    12.06999969   9.55999947  51.86999893
H     9.56999969   9.61999989  52.27000427
H     7.42000008   8.97999954  51.73999786
H     8.80999947   7.50000000  47.88000107
H    17.01000023   8.34000015  48.33000183
H     5.89999962   8.06999969  50.14999771
H     6.48999977   6.67999983  49.10999680
