96

S    16.82999992   9.52999973  58.63999939
C    19.52999878   9.50000000  57.94000244
C    18.22999954   9.15999985  57.63000107
C    17.81999969   8.69000053  56.33999634
C    18.79999924   8.48999977  55.38999939
C    20.13999939   8.89000034  55.61000061
C    21.14999962   8.64999962  54.62999725
C    22.46000099   8.96000004  54.93000031
C    22.76000023   9.56999969  56.18000031
C    21.81999969   9.86999989  57.12999725
C    20.48999977   9.43000031  56.90000153
C    16.36999893   8.65999985  56.18000031
C    15.70000076   9.18000031  57.31999969
C    14.32000065   9.28999996  57.36999893
C    24.18000031  10.03000069  56.40999603
H    24.47897911   9.52458382  57.32829285
H    19.78999901   9.98000050  58.88000107
H    18.53000069   7.99000025  54.47000122
H    20.90999985   8.03999996  53.76999664
H    23.23999786   8.71999931  54.20999908
H    22.09000015  10.29999924  58.09999847
H    13.94999981   9.85999966  58.22000122
H    24.84999847   9.71000004  55.59999847
H    24.11999893  11.11999989  56.56000137
S    13.15999985   7.82999992  53.87000275
C    10.44999981   8.13000011  54.54999924
C    11.77000046   8.30000019  54.86999893
C    12.15000057   8.90999985  56.10000229
C    11.16000080   9.21000004  57.02999878
C     9.80000019   8.88000011  56.81999969
C     8.80000019   9.01000023  57.81000137
C     7.46000004   8.76000023  57.58999634
C     7.09000015   8.43999958  56.25999832
C     8.03999996   8.30000019  55.27999878
C     9.44000053   8.39999962  55.51000214
C    13.60000038   8.85999966  56.25000000
C    14.28999996   8.27999973  55.15999603
C    15.67000008   8.05999947  55.13000107
C     5.61999989   8.43999958  55.90999985
H     5.41368484   8.66765785  54.86419678
H    10.11999989   7.50000000  53.72000122
H    11.44000053   9.61999989  58.00000000
H     9.04999924   9.34000015  58.81999969
H     6.83000040   8.73000050  58.47000122
H     7.68000031   8.22000027  54.25000000
H    16.18000031   7.63000011  54.27000046
H     5.13000011   9.17000008  56.56999969
H     5.19999981   7.44000006  56.06999969
S    17.13000107   9.72000027  52.63999939
C    19.88000107   9.92000008  52.00000000
C    18.60000038   9.56999969  51.65999985
C    18.27000046   9.13000011  50.34000015
C    19.27000046   9.02999973  49.38000107
C    20.62999916   9.21000004  49.73999786
C    21.65999985   9.02000046  48.77999878
C    22.95000076   9.36999989  49.10999680
C    23.26000023   9.94000053  50.38000107
C    22.26000023  10.11999989  51.31000137
C    20.90999985   9.77999973  51.03000259
C    16.84000015   8.97000027  50.13999939
C    16.06999969   9.26999950  51.29000092
C    14.68999958   9.46000004  51.22000122
C    24.67000008  10.40999985  50.63999939
H    25.06785965   9.84873390  51.48545074
H    20.17000008  10.34000015  52.95999908
H    19.06999969   8.89000034  48.31999969
H    21.48999977   8.63000011  47.77999878
H    23.71999931   9.47000027  48.34999847
H    22.47999954  10.59000015  52.25999832
H    14.18000031   9.85999966  52.09000015
H    25.28000069  10.06999969  49.79000092
H    24.61999893  11.47999954  50.86999893
S    13.71000099   8.50000000  47.47000122
C    10.95999908   8.50000000  48.09000015
C    12.25000000   8.85000038  48.41999817
C    12.61000061   9.25000000  49.75000000
C    11.61999893   9.48000050  50.68999863
C    10.27999973   9.15999985  50.37000275
C     9.25000000   9.22000027  51.36000061
C     7.94000053   8.97999954  51.04999924
C     7.64999962   8.32999992  49.81999969
C     8.64000034   8.07999992  48.89999771
C     9.96000004   8.57999992  49.09000015
C    14.04000092   9.22000027  50.00999832
C    14.77000046   8.80000019  48.87000275
C    16.15999985   8.84000015  48.93000031
C     6.23000050   7.90000010  49.50000000
H     5.70169210   8.50684071  48.76465225
H    10.73999977   8.02999973  47.14000320
H    11.95000076   9.77999973  51.68000031
H     9.65999985   9.55999947  52.30999756
H     7.17000008   9.42000008  51.68000031
H     8.39999962   7.69000006  47.90999985
H    16.75000000   8.75000000  48.02000046
H     5.59999990   7.79999971  50.38999939
H     6.39999962   6.94000006  49.01000214
