96

S    16.94000053   9.63000011  59.02000046
C    19.63000107  10.00000000  58.30999756
C    18.35000038   9.63999939  57.95000076
C    17.97999954   9.25000000  56.63000107
C    19.02000046   9.07999992  55.72000122
C    20.38999939   9.23999977  56.03000259
C    21.47999954   9.06000042  55.13999939
C    22.79000092   9.31999969  55.45999908
C    23.06999969   9.80000019  56.76000214
C    22.01999855   9.94999981  57.63999939
C    20.65000153   9.75000000  57.35000229
C    16.54999924   9.09000015  56.43000031
C    15.85999966   9.30999947  57.64999771
C    14.47999954   9.21000004  57.70000076
C    24.51000023  10.15999985  57.09000015
H    24.90743637   9.47867870  57.84229279
H    19.86999893  10.39000034  59.29999924
H    18.67000008   8.93000031  54.69999695
H    21.24000168   8.89999962  54.09000015
H    23.54999924   9.44999981  54.68999863
H    22.11000061  10.34999943  58.64999771
H    13.99000072   9.46000004  58.63999939
H    25.17000008  10.22999954  56.22000122
H    24.34999847  11.13999939  57.55000305
S    13.34000015   8.36999989  53.99000168
C    10.65000057   8.13000011  54.79000092
C    11.95000076   8.47999954  55.08999634
C    12.31999969   8.92000008  56.39999771
C    11.28999901   9.09000015  57.29999924
C     9.94000053   8.69999981  57.09999847
C     9.00000000   8.60000038  58.15999985
C     7.73000002   8.21000004  57.84000015
C     7.35000038   7.77999973  56.53999710
C     8.27999973   7.90000010  55.52999878
C     9.63000011   8.25000000  55.77000046
C    13.76999950   8.94999981  56.52000046
C    14.47999954   8.67999935  55.31999969
C    15.85999966   8.57999992  55.31999969
C     5.92999983   7.34000015  56.23000336
H     5.55874920   8.06108284  55.50177765
H    10.32999992   7.79999971  53.81000137
H    11.59999943   9.38000011  58.29999924
H     9.21000004   8.76999950  59.22000122
H     7.03000021   8.01000023  58.64999771
H     8.01000023   7.71000004  54.48999786
H    16.43000031   8.14999962  54.48999786
H     5.38999987   7.27999973  57.18000031
H     6.05000019   6.32999992  55.80999756
S    17.12000084  10.44999981  52.63999939
C    19.86999893  10.48999977  52.02000046
C    18.57999992  10.19999981  51.65999985
C    18.30000114   9.65999985  50.37000275
C    19.30999947   9.51000023  49.43999863
C    20.63999939   9.84000015  49.78000259
C    21.75000000   9.59000015  48.92000198
C    23.05999947   9.85999966  49.23999786
C    23.29999924  10.46000004  50.51000214
C    22.29000092  10.70000076  51.40999603
C    20.94000053  10.34999943  51.10000229
C    16.86000061   9.48999977  50.21999741
C    16.06999969   9.92999935  51.31000137
C    14.68000031   9.98000050  51.38000107
C    24.72999954  10.77000046  50.90000153
H    25.17127609  10.07961750  51.61885071
H    20.05000114  10.86999989  53.02000046
H    19.12999916   9.07999992  48.44999695
H    21.45999908   9.17000008  47.95999908
H    23.82999802   9.59000015  48.54000092
H    22.50999832  11.21000099  52.34000397
H    14.18000031  10.36999893  52.25999832
H    25.35000038  10.80000019  50.00000000
H    24.65999985  11.77999973  51.31000137
S    13.64999962   8.85999966  47.72999573
C    10.95000076   8.51000023  48.37999725
C    12.22000027   8.86999989  48.77999878
C    12.56999969   9.44999981  50.04000092
C    11.49000072   9.72000027  50.86000061
C    10.19000053   9.22000027  50.59000015
C     9.06999969   9.46000004  51.45000076
C     7.78999996   9.11000061  51.11999893
C     7.57000017   8.38000011  49.92000198
C     8.56000042   8.26000023  48.96999741
C     9.86999989   8.71999931  49.27999878
C    14.01000023   9.52999973  50.24000168
C    14.75000000   9.19999981  49.08000183
C    16.13999939   9.11999989  49.08000183
C     6.19000006   7.86999989  49.59000015
H     5.62685299   8.39750481  48.82012558
H    10.84000015   7.82999992  47.54000092
H    11.67000008  10.14999962  51.84000015
H     9.19999981  10.11000061  52.30999756
H     7.04999971   9.25000000  51.90999985
H     8.39999962   7.69000006  48.06000137
H    16.70999908   8.80000019  48.20999908
H     5.68000031   7.79999971  50.56999969
H     6.26999950   6.81999969  49.27999878
