96

S    16.84999847   9.63000011  58.87000275
C    19.47999954  10.03999901  58.15999985
C    18.29000092   9.42000008  57.85999680
C    17.97999954   8.78999996  56.60999680
C    18.96000099   8.76999950  55.63999939
C    20.23999977   9.28999996  55.93999863
C    21.35000038   9.11999989  55.07999802
C    22.67000008   9.47000027  55.28999710
C    22.90999985  10.03000069  56.56999969
C    21.88999939  10.22999954  57.47000122
C    20.53999901   9.82999992  57.23999786
C    16.54000092   8.78999996  56.38000107
C    15.78999996   9.19999981  57.50999832
C    14.42000008   9.42000008  57.52999878
C    24.27000046  10.54999924  56.98999786
H    24.67572403   9.83108616  57.70179367
H    19.55999947  10.67000008  59.03999710
H    18.68000031   8.34000015  54.68000031
H    20.94000053   8.65999985  54.18000031
H    23.43000031   9.39999962  54.52000046
H    21.97999954  10.77999973  58.40999985
H    13.85000038   9.89000034  58.33000183
H    24.86000061  10.53999996  56.05999756
H    24.07999992  11.59000015  57.25000000
S    13.31999969   8.23000050  53.93000031
C    10.65000057   7.82000017  54.68000031
C    11.89000034   8.36000061  54.97000122
C    12.27000046   8.92000008  56.23000336
C    11.21000099   9.10000038  57.09000015
C     9.86999989   8.71000004  56.86999893
C     8.85000038   8.89000034  57.84999847
C     7.57000017   8.50000000  57.52999878
C     7.28999996   8.00000000  56.23000336
C     8.27999973   7.65999985  55.33000183
C     9.61000061   8.09000015  55.59999847
C    13.71000099   9.11999989  56.36000061
C    14.44000053   8.71000004  55.21999741
C    15.80999947   8.45000076  55.24000168
C     5.86999989   7.57000017  55.96000290
H     5.38072586   8.29327583  55.30763626
H    10.47999954   7.39000034  53.69999695
H    11.47999954   9.48999977  58.06999969
H     9.06000042   9.43000031  58.76999664
H     6.76999998   8.64000034  58.26000214
H     8.15999985   7.13000011  54.38999939
H    16.28999901   7.86000013  54.45999908
H     5.36999989   7.46999979  56.93000031
H     6.00000000   6.60000038  55.45000076
S    13.30000019   5.79999971  50.93000031
C    10.64000034   5.40999985  51.90000153
C    12.00000000   5.38999987  52.08000183
C    12.53000069   4.90000010  53.30999756
C    11.63000011   4.38000011  54.22000122
C    10.22999954   4.36999989  54.06999969
C     9.34000015   3.68000007  54.93999863
C     7.99000025   3.78999996  54.73999786
C     7.49000025   4.44999981  53.59000397
C     8.30999947   4.90000010  52.58999634
C     9.71000004   4.88000011  52.83000183
C    13.96999931   5.09999990  53.43000031
C    14.48999977   5.65999985  52.23999786
C    15.84000015   5.97000027  52.12999725
C     6.00000000   4.67999983  53.44999695
H     5.62473488   4.19144726  52.55077744
H    10.29999924   5.84999990  50.96000290
H    12.06999969   3.68999982  54.94999695
H     9.75000000   3.08999991  55.76000214
H     7.35000038   3.22000003  55.40999985
H     7.92000008   5.42999983  51.72000122
H    16.31000137   6.34999990  51.23000336
H     5.52999973   4.36999989  54.38999939
H     5.72000027   5.73999977  53.34000015
S    17.30999947   4.65999985  55.65999985
C    19.93999863   5.19000006  54.87999725
C    18.60000038   5.36000013  54.65999985
C    18.04999924   5.89999962  53.44999695
C    18.89999962   6.50000000  52.52999878
C    20.28000069   6.54999971  52.84999847
C    21.18000031   7.05999947  51.88000107
C    22.53000069   6.90999985  52.06999969
C    23.08000183   6.34999990  53.26000214
C    22.22999954   5.69999981  54.12000275
C    20.81999969   5.82000017  53.95999908
C    16.61999893   5.69000006  53.26000214
C    16.10000038   5.13999987  54.45000076
C    14.75999928   4.77999973  54.54000092
C    24.57999992   6.25000000  53.47000122
H    24.97108078   6.21444702  54.48680496
H    20.43000031   4.57999992  55.63999939
H    18.53000069   6.78999996  51.55000305
H    20.72999954   7.42999983  50.96000290
H    23.28000069   7.13999987  51.31999969
H    22.56000137   5.13999987  54.99000168
H    14.37000084   4.00000000  55.20000076
H    25.07999802   7.07000017  52.94000244
H    25.06000137   5.45000029  52.90000153
