96

S    17.18000031   9.57999992  59.22000122
C    19.85999870   9.52999973  58.47999954
C    18.54999924   9.26999950  58.13999939
C    18.18000031   8.61999989  56.91999817
C    19.14999962   8.39999962  55.96000290
C    20.46999931   8.82999992  56.20999908
C    21.48999977   8.80000019  55.20999908
C    22.78000069   9.17000008  55.51000214
C    23.22000122   9.57999992  56.79999924
C    22.22999954   9.64999962  57.75000000
C    20.86999893   9.27999973  57.51999664
C    16.77000046   8.27999973  56.97999954
C    16.06999969   8.67000008  58.15999985
C    14.68999958   8.78000069  58.11999893
C    24.67000008   9.92000008  57.02000046
H    25.16155815   9.20759678  57.68253708
H    20.09000015   9.85000038  59.48999786
H    18.89999962   7.88999987  55.02999878
H    21.27000046   8.56999969  54.16999817
H    23.52000046   9.13000011  54.72000122
H    22.49000168   9.92999935  58.76999664
H    14.23999977   9.22999954  59.00000000
H    25.22999954  10.01999950  56.07999802
H    24.70999908  10.95999908  57.37999725
S    13.53999996   7.50999975  54.52000046
C    10.84000015   7.88000011  55.01999664
C    12.13000107   8.00000000  55.47999954
C    12.48999977   8.38999939  56.81000137
C    11.43000031   8.59000015  57.68000031
C    10.07999992   8.43999958  57.27000427
C     9.10000038   8.46000004  58.29999924
C     7.78999996   8.19000053  57.97000122
C     7.42999983   7.76999998  56.66999817
C     8.42000008   7.60999966  55.72000122
C     9.77000046   7.97999954  55.93999863
C    13.92000008   8.34000015  57.02999878
C    14.61999989   7.88999987  55.87999725
C    16.01000023   7.96000004  55.84999847
C     6.02999973   7.27999973  56.38000107
H     5.59477425   7.82938385  55.54522324
H    10.69000053   7.30999994  54.09999847
H    11.63000011   8.89000034  58.70999908
H     9.39999962   8.64999962  59.33000183
H     6.98000002   8.26000023  58.68999863
H     8.32999992   7.09999990  54.77000427
H    16.50000000   7.75000000  54.91000366
H     5.38999987   7.42000008  57.27000427
H     5.98000002   6.23000050  56.05999756
S    13.60000038   5.78000021  51.16000366
C    10.95000076   5.26999998  51.93999863
C    12.30000019   5.00000000  52.08000183
C    12.81999969   4.34999990  53.23999786
C    11.95000076   3.77999997  54.15000153
C    10.54999924   3.96000004  54.06000137
C     9.55999947   3.50000000  54.97000122
C     8.21000004   3.70000005  54.82999802
C     7.76999998   4.53999996  53.76999664
C     8.69000053   4.94999981  52.83000183
C    10.08999920   4.71000004  52.91999817
C    14.23999977   4.56999969  53.47000122
C    14.77000046   5.36999989  52.42000198
C    16.09000015   5.80999947  52.50000000
C     6.32000017   4.69999981  53.40000153
H     5.94903564   4.13641977  52.54392624
H    10.50000000   5.86999989  51.16000366
H    12.42000008   3.14000010  54.88999939
H     9.92999935   2.99000001  55.86000061
H     7.51999950   3.28999996  55.56999969
H     8.31999969   5.49000025  51.95999908
H    16.52000046   6.38000011  51.68000031
H     5.89999962   4.46000004  54.38999939
H     6.12999964   5.78000021  53.39000320
S    17.70000076   3.98999977  55.63000107
C    20.31999969   4.86000013  55.06999969
C    18.98999977   4.81999969  54.72999954
C    18.40999985   5.53999996  53.62999725
C    19.34000015   6.15999985  52.81999969
C    20.73999786   6.05999994  53.02999878
C    21.70000076   6.61000013  52.14000320
C    23.05999947   6.54999971  52.36000061
C    23.51000023   5.86999989  53.52000427
C    22.67000008   5.28999996  54.45000076
C    21.28000069   5.33999968  54.15000153
C    16.97000122   5.35000038  53.47999954
C    16.44000053   4.53999996  54.51000214
C    15.08999920   4.19999981  54.51000214
C    25.00999832   5.73000002  53.62999725
H    25.30867195   5.80822420  54.67535400
H    20.71000099   4.69999981  56.06999969
H    19.01000023   6.76000023  51.97999954
H    21.21000099   7.16000032  51.32999802
H    23.69999886   7.16000032  51.73999786
H    22.93999863   4.63000011  55.27000046
H    14.88999939   3.42000008  55.25000000
H    25.38000107   6.54999971  53.00000000
H    25.42000008   4.76999998  53.29000092
