96

S    16.67000008   9.22000027  58.97999573
C    19.32999992   9.68000031  58.13000107
C    18.09999847   9.09000015  57.94000244
C    17.65999985   8.71000004  56.63000107
C    18.60999870   8.52000046  55.65000153
C    19.90999985   9.06000042  55.81999969
C    20.96999931   8.94999981  54.87999725
C    22.21999931   9.43000031  55.18000031
C    22.53999901  10.03999901  56.42000198
C    21.53000069  10.29000092  57.31999969
C    20.25000000   9.72000027  57.05999756
C    16.21999931   8.60999966  56.45000076
C    15.52999973   8.97000027  57.63999939
C    14.14999962   9.09000015  57.65999603
C    23.95999908  10.32999992  56.86000061
H    24.43828201   9.65183926  57.56671524
H    19.63999939  10.27999973  58.97999573
H    18.37000084   8.05999947  54.69999695
H    20.76000023   8.57999992  53.88000107
H    23.00000000   9.40999985  54.41999817
H    21.77000046  10.51000023  58.34999847
H    13.68000031   9.22000027  58.62999725
H    24.59000015  10.44999981  55.97000122
H    24.01000023  11.31000042  57.35000229
S    12.94000053   8.26000023  53.96999741
C    10.24000072   8.19999981  54.72000122
C    11.54999924   8.39999962  55.06000137
C    11.94000053   8.71000004  56.39999771
C    10.93999958   8.85999966  57.35000229
C     9.57999992   8.61999989  57.04000092
C     8.53999996   8.52999973  58.01000214
C     7.27999973   8.06999969  57.69000244
C     6.94999981   7.92999983  56.31999969
C     7.85000038   8.09000015  55.30000305
C     9.21000004   8.27000046  55.68999863
C    13.38999939   8.80999947  56.52000046
C    14.06999969   8.42000008  55.33000183
C    15.44999981   8.27000046  55.33000183
C     5.55999994   7.49000025  55.90000153
H     5.20448875   8.02326679  55.01833344
H    10.10000038   7.81000042  53.70999908
H    11.26999950   9.09000015  58.36000061
H     8.80000019   8.65999985  59.05000305
H     6.51000023   7.82999992  58.41999817
H     7.59000015   8.10000038  54.23999786
H    15.98999977   8.05999947  54.40999985
H     4.84000015   7.55000019  56.73999786
H     5.72000027   6.44999981  55.59999847
S    13.34000015   6.06999969  51.04999924
C    10.65000057   5.55000019  51.45000076
C    11.92999935   5.45000029  51.93999863
C    12.28999996   4.97000027  53.23999786
C    11.23999977   4.57999992  54.05000305
C     9.89000034   4.79999971  53.68999863
C     8.89000034   4.40000010  54.64000320
C     7.57999992   4.65000010  54.29999924
C     7.23999977   5.05000019  52.98999786
C     8.21000004   5.36999989  52.06999969
C     9.59999943   5.25000000  52.35000229
C    13.71999931   5.00000000  53.47000122
C    14.40000057   5.63000011  52.39999771
C    15.77999973   5.84000015  52.42000198
C     5.82000017   4.90999985  52.48000336
H     5.71353674   4.17185545  51.68507767
H    10.39000034   5.92000008  50.45999908
H    11.43000031   4.18000031  55.04000092
H     9.21000004   3.98999977  55.59000015
H     6.80000019   4.19000006  54.89999771
H     7.96999979   5.79999971  51.10000229
H    16.18000031   6.24000025  51.49000168
H     5.21000004   4.67000008  53.36000061
H     5.58000040   5.89999962  52.08000183
S    16.97999954   4.42000008  55.91999817
C    19.65999985   5.01999950  55.45000076
C    18.35000038   5.09000015  55.01999664
C    17.95999908   5.69000006  53.77999878
C    18.96999931   6.15000010  52.95000076
C    20.31999969   6.09000015  53.39000320
C    21.31999969   6.44999981  52.43999863
C    22.63999939   6.47000027  52.81999969
C    23.02000046   5.77000046  54.00000000
C    22.10000038   5.38999987  54.93999863
C    20.71000099   5.51000023  54.64000320
C    16.54000092   5.47999954  53.54000092
C    15.88000107   4.76999998  54.56999969
C    14.52000046   4.48000002  54.50000000
C    24.51000023   5.56999969  54.18000031
H    24.95726013   6.49291706  54.54916382
H    19.92000008   4.53000021  56.38000107
H    18.75000000   6.42000008  51.91999817
H    20.88000107   6.67999983  51.46999741
H    23.51000023   6.85999966  52.30999756
H    22.43999863   4.96000004  55.87999725
H    14.11000061   3.75999975  55.20000076
H    24.89999962   5.12000036  53.26000214
H    24.56999969   4.71000004  54.85000229
