96

S    16.97000122   9.90999985  58.62999725
C    19.68000031   9.89000034  57.98999786
C    18.39999962   9.48999977  57.67000198
C    18.04999924   8.93000031  56.39999771
C    19.11999893   8.67000008  55.56999969
C    20.46999931   9.00000000  55.83000183
C    21.52000046   8.78999996  54.89999771
C    22.77000046   9.26000023  55.22999573
C    23.13999939   9.70000076  56.52000046
C    22.11000061   9.86999989  57.42000198
C    20.75000000   9.57999992  57.11999893
C    16.61000061   8.86999989  56.18000031
C    15.92000008   9.38000011  57.30999756
C    14.52999973   9.42000008  57.37999725
C    24.60000038   9.90999985  56.84999847
H    25.06846809   9.23568916  57.56689453
H    20.00000000  10.29999924  58.95000076
H    18.84000015   8.15999985  54.65000153
H    21.45000076   8.38000011  53.88999939
H    23.54999924   9.15000057  54.47999954
H    22.39999962  10.21999931  58.40999985
H    13.99000072   9.88000011  58.20000076
H    25.17000008   9.77000046  55.93000031
H    24.73999977  10.95000076  57.18999863
S    13.43000031   8.11999989  53.79000092
C    10.73999977   7.82999992  54.58000183
C    12.01000023   8.28999996  54.84000397
C    12.38000011   8.80000019  56.11999893
C    11.38000011   9.06000042  57.04999924
C    10.05000019   8.67000008  56.79000092
C     9.00000000   8.82999992  57.74000168
C     7.69999981   8.50000000  57.45999908
C     7.39000034   7.76999998  56.27999878
C     8.39999962   7.50999975  55.38000107
C     9.72000027   8.00000000  55.56000137
C    13.81999969   8.92000008  56.27999878
C    14.53999996   8.48999977  55.13000107
C    15.92000008   8.39999962  55.06000137
C     5.92999983   7.57999992  55.93000031
H     5.54559708   8.24202728  55.15407944
H    10.52999973   7.44000006  53.59000397
H    11.63000011   9.53999996  57.98999786
H     9.21000004   9.25000000  58.72000122
H     6.84999990   8.73999977  58.09000015
H     8.22000027   7.11999989  54.38999939
H    16.55999947   8.13000011  54.22000122
H     5.18000031   7.63999987  56.72000122
H     5.82999992   6.58999968  55.47999954
S    17.42000008   9.96999931  52.61000061
C    20.07999802  10.05000019  51.86000061
C    18.79999924   9.64999962  51.53999710
C    18.46999931   9.04999924  50.27999878
C    19.47000122   8.73999977  49.38999939
C    20.79000092   9.21000004  49.64000320
C    21.91999817   8.97999954  48.81000137
C    23.23999786   9.15999985  49.15999985
C    23.50000000   9.89000034  50.34999847
C    22.44999886  10.18000031  51.18999863
C    21.09999847   9.85000038  50.89000320
C    17.01000023   9.09000015  50.21999741
C    16.28000069   9.67000008  51.27999878
C    14.89999962   9.77000046  51.32999802
C    24.90999985  10.34000015  50.68000031
H    25.42959976   9.62110233  51.31348419
H    20.25000000  10.46000004  52.84999847
H    19.25000000   8.26000023  48.43999863
H    21.68000031   8.50000000  47.85999680
H    24.11000061   8.73999977  48.66000366
H    22.69000053  10.70000076  52.11000061
H    14.40999985  10.31000042  52.12999725
H    25.48999977  10.50000000  49.75999832
H    24.73999977  11.28999901  51.18999863
S    13.81000042   7.82999992  48.04999924
C    11.10999966   8.02999973  48.55999756
C    12.38000011   8.38000011  48.95000076
C    12.68000031   9.11000061  50.14999771
C    11.64999962   9.43000031  51.00000000
C    10.31999969   9.02999973  50.72999954
C     9.26999950   9.02999973  51.70000076
C     8.03999996   8.55000019  51.35000229
C     7.72000027   8.05999947  50.05000305
C     8.76000023   7.92000008  49.16999817
C    10.08999920   8.31999969  49.50000000
C    14.13000011   9.27999973  50.27000046
C    14.85000038   8.71000004  49.19000244
C    16.23999977   8.61999989  49.15000153
C     6.32000017   7.57999992  49.73999786
H     5.93592453   8.12766266  48.87938690
H    10.88000107   7.51999950  47.63000107
H    11.71000004   9.96000004  51.95000076
H     9.47000027   9.38000011  52.70999908
H     7.27999973   8.73000050  52.09999847
H     8.69000053   7.44000006  48.20000076
H    16.79000092   8.21000004  48.29999924
H     5.63000011   7.82000017  50.56000137
H     6.30000019   6.48999977  49.65999985
