96

S    17.23999977  10.05000019  58.75000000
C    19.93000031  10.03999901  57.95999908
C    18.63999939   9.61999989  57.75000000
C    18.20000076   8.96000004  56.56000137
C    19.13999939   8.73999977  55.58000183
C    20.51000214   9.06999969  55.77000046
C    21.45999908   8.89000034  54.73999786
C    22.81999969   9.06000042  54.92000198
C    23.19999886   9.63999939  56.16000366
C    22.30999947   9.92999935  57.15999985
C    20.93000031   9.63000011  57.02999878
C    16.75000000   8.93999958  56.42000198
C    16.07999992   9.53999996  57.50999832
C    14.68999958   9.56999969  57.55000305
C    24.57999992  10.24000072  56.37000275
H    25.14099121   9.68610859  57.12272644
H    20.15999985  10.71000004  58.77999878
H    18.81999969   8.34999943  54.61999893
H    21.09000015   8.52000046  53.77999878
H    23.54000092   8.93000031  54.12000275
H    22.63999939  10.57000065  57.97999954
H    14.19000053   9.89000034  58.46000290
H    25.20000076  10.25000000  55.45999908
H    24.44999886  11.28000069  56.65999985
S    13.52000046   8.10000038  54.02000046
C    10.85000038   7.76000023  54.82999802
C    12.13000107   8.18000031  55.11000061
C    12.51000023   8.85999966  56.31000137
C    11.49000072   9.09000015  57.22000122
C    10.15999985   8.65999985  56.98999786
C     9.18000031   8.84000015  58.00000000
C     7.83999968   8.71000004  57.69000244
C     7.53000021   8.10999966  56.45000076
C     8.43000031   7.72000027  55.48999786
C     9.80000019   8.03999996  55.73999786
C    13.93000031   9.15000057  56.45000076
C    14.60000038   8.69999981  55.28999710
C    15.98999977   8.63000011  55.27999878
C     6.14000034   7.59999990  56.11999893
H     5.50434351   8.33564758  55.62718582
H    10.72000027   7.09999990  53.97999573
H    11.77000046   9.56999969  58.15000153
H     9.63000011   9.09000015  58.95999908
H     7.17000008   9.02000046  58.47999954
H     8.19999981   7.37999964  54.47999954
H    16.57999992   8.27999973  54.43999863
H     5.63000011   7.35000038  57.05999756
H     6.24000025   6.74000025  55.44000244
S    17.30999947  10.15999985  52.56999969
C    19.98999977  10.06000042  51.90999985
C    18.68999863   9.80000019  51.52000046
C    18.30999947   9.48999977  50.18000031
C    19.27000046   9.18000031  49.22999954
C    20.62999916   9.31999969  49.59999847
C    21.67000008   9.09000015  48.67000198
C    23.00000000   9.27999973  48.97999573
C    23.32999992   9.89000034  50.21999741
C    22.34000015  10.07999992  51.16000366
C    20.96999931   9.81999969  50.90999985
C    16.87000084   9.59999943  50.01999664
C    16.18999863   9.94999981  51.22000122
C    14.80000019   9.90999985  51.29000092
C    24.70999908  10.42000008  50.48999786
H    25.23786545   9.76373386  51.18193054
H    20.15000153  10.42000008  52.91999817
H    19.04000092   8.85999966  48.22000122
H    21.38999939   8.67000008  47.70999908
H    23.75999832   9.10000038  48.22999954
H    22.62000084  10.50000000  52.12999725
H    14.29999924  10.25000000  52.19999695
H    25.28000069  10.51000023  49.54999924
H    24.54999924  11.40999985  50.94999695
S    13.63000011   8.71999931  47.77000046
C    10.95000076   8.34999943  48.54000092
C    12.25000000   8.61999989  48.88999939
C    12.58999920   9.02999973  50.21999741
C    11.63000011   9.15999985  51.20999908
C    10.26999950   8.93999958  50.89000320
C     9.18000031   9.03999996  51.79999924
C     7.88999987   8.69999981  51.45000076
C     7.59999990   8.28999996  50.12000275
C     8.61999989   8.25000000  49.20000076
C     9.96000004   8.61999989  49.52000046
C    14.01000023   9.34000015  50.28999710
C    14.73999977   9.11000061  49.09999847
C    16.10999870   9.23999977  48.89999771
C     6.19000006   7.82000017  49.82999802
H     5.66367531   8.39611244  49.06896210
H    10.71000004   8.10000038  47.50999832
H    11.95000076   9.51000023  52.18000031
H     9.47000027   9.26000023  52.81999969
H     7.09999990   8.48999977  52.16999817
H     8.39999962   7.88000011  48.20000076
H    16.52000046   8.85000038  47.97999954
H     5.78999996   7.86999989  50.84999847
H     6.17999983   6.75000000  49.56999969
