96

S    17.23999977   9.11000061  58.87000275
C    19.90999985   9.38000011  58.06999969
C    18.63999939   8.90999985  57.80000305
C    18.32999992   8.42000008  56.49000168
C    19.37000084   8.19999981  55.59999847
C    20.69000053   8.57999992  55.93999863
C    21.84000015   8.43000031  55.11000061
C    23.09000015   8.85999966  55.47999954
C    23.35000038   9.44000053  56.75000000
C    22.29999924   9.64999962  57.62000275
C    21.01000023   9.19999981  57.19999695
C    16.88999939   8.31999969  56.35000229
C    16.17000008   8.67999935  57.51999664
C    14.78999996   8.73000050  57.57999802
C    24.79000092   9.73999977  57.08000183
H    25.15916634   9.10105705  57.88222885
H    20.10000038   9.88000011  59.02000046
H    19.09000015   7.85000038  54.61000061
H    21.73000145   8.11999989  54.08000183
H    23.84000015   8.89999962  54.69999695
H    22.49000168  10.05000019  58.61000061
H    14.23999977   9.01000023  58.47000122
H    25.36999893   9.42000008  56.20999908
H    24.89000130  10.81999969  57.27000427
S    13.67000008   7.36999989  54.00000000
C    10.95000076   7.37999964  54.72999954
C    12.25000000   7.76000023  54.98000336
C    12.61999989   8.38999939  56.20999908
C    11.65999985   8.53999996  57.18999863
C    10.29000092   8.23999977  56.97000122
C     9.25000000   8.28999996  57.94000244
C     7.92999983   8.05999947  57.62000275
C     7.57000017   7.51999950  56.36000061
C     8.60000038   7.30000019  55.45999908
C     9.96000004   7.64999962  55.70000076
C    14.06999969   8.43999958  56.40999603
C    14.75999928   7.97999954  55.26000214
C    16.14999962   8.00000000  55.20000076
C     6.14000034   7.09999990  56.10000229
H     5.69712734   7.60716105  55.24282455
H    10.67999935   6.69000053  53.94000244
H    12.00000000   8.82000065  58.18999863
H     9.71000004   8.43000031  58.90999603
H     7.23000002   8.15999985  58.43999863
H     8.38999939   6.94000006  54.45999908
H    16.59000015   7.73000002  54.25000000
H     5.56999969   7.44999981  56.97000122
H     6.06999969   6.01999998  55.93999863
S    14.02999973   5.55000019  50.93999863
C    11.43000031   4.98000002  51.50000000
C    12.74000072   4.73000002  51.84999847
C    13.20000076   4.02999973  53.01000214
C    12.30000019   3.45999980  53.88999939
C    10.95000076   3.75999975  53.59000397
C     9.96000004   3.22000003  54.45999908
C     8.60999966   3.45000005  54.31999969
C     8.17000008   4.21000004  53.20999908
C     9.09000015   4.71000004  52.31999969
C    10.48999977   4.46000004  52.42000198
C    14.61999989   4.28999996  53.20999908
C    15.18000031   5.13000011  52.22000122
C    16.48999977   5.60999966  52.29999924
C     6.70000029   4.59000015  53.15000153
H     6.32290173   4.04925489  52.28196335
H    11.13999939   5.59999990  50.65999985
H    12.61999989   2.89999986  54.77000427
H    10.29000092   2.68000007  55.34000015
H     7.86999989   3.05000019  55.00999832
H     8.69000053   5.38999987  51.56999969
H    16.92000008   6.17000008  51.47999573
H     6.15999985   4.38000011  54.08000183
H     6.57999992   5.64000034  52.88000107
S    17.90999985   3.95000005  55.59999847
C    20.58000183   4.41000032  54.87999725
C    19.25000000   4.65000010  54.66999817
C    18.76000023   5.33999968  53.50999832
C    19.71999931   5.89999962  52.69000244
C    21.11999893   5.78999996  52.90000153
C    22.07999992   6.28000021  51.97000122
C    23.38999939   6.17000008  52.36999893
C    23.82999802   5.46000004  53.52000427
C    22.92000008   4.78999996  54.29999924
C    21.54000092   4.98000002  54.01000214
C    17.31999969   5.18000031  53.34000015
C    16.73999977   4.36999989  54.34000015
C    15.44000053   3.88000011  54.27000046
C    25.29999924   5.32999992  53.83999634
H    25.71140480   5.90454769  54.66989899
H    20.81999969   3.68999982  55.65999985
H    19.45999908   6.32000017  51.72000122
H    21.68999863   6.63000011  51.03000259
H    24.10000038   6.37000036  51.56000137
H    23.11000061   4.32000017  55.26000214
H    15.24000072   3.19000006  55.08999634
H    25.86999893   5.61999989  52.94000244
H    25.52999878   4.28999996  54.08000183
