96

S    16.95000076   9.89999962  58.43999863
C    19.62000084   9.94999981  57.76000214
C    18.32999992   9.68999958  57.35000229
C    18.02999878   9.15000057  56.05999756
C    19.06999969   8.85999966  55.19000244
C    20.38999939   9.26000023  55.48999786
C    21.47999954   9.26999950  54.58000183
C    22.75000000   9.70000076  54.88999939
C    22.98000145  10.26000023  56.18000031
C    21.94999886  10.31000042  57.09999847
C    20.65000153   9.82999992  56.79000092
C    16.59000015   9.06999969  55.90999985
C    15.88999939   9.48999977  57.06999969
C    14.51000023   9.68999958  57.11000061
C    24.38999939  10.67000008  56.52999878
H    24.78987694   9.86310387  57.14409637
H    19.79999924  10.57000065  58.62999725
H    18.94000053   8.64999962  54.13999939
H    21.31999969   8.89999962  53.56999969
H    23.55999947   9.61000061  54.18000031
H    22.17000008  10.60999966  58.11999893
H    14.00000000  10.11999989  57.95999908
H    25.06999969  10.60999966  55.66999817
H    24.44999886  11.67000008  56.97000122
S    13.28999996   8.26000023  53.64999771
C    10.59000015   8.27999973  54.27999878
C    11.87000084   8.57999992  54.66999817
C    12.28999996   9.06999969  55.94999695
C    11.26000023   9.21000004  56.86999893
C     9.92999935   8.80000019  56.63999939
C     8.89999962   8.96000004  57.60000229
C     7.57000017   8.73000050  57.29999924
C     7.25000000   8.27999973  55.98999786
C     8.23000050   8.11999989  55.04000092
C     9.59999943   8.36999989  55.30000305
C    13.73000050   9.17000008  56.05999756
C    14.42999935   8.64999962  54.94999695
C    15.81999969   8.65999985  54.81999969
C     5.79999971   8.02999973  55.63999939
H     5.54476452   8.46957302  54.67577362
H    10.29000092   7.82000017  53.34999847
H    11.46000004   9.39000034  57.93000031
H     9.15999985   9.50000000  58.50000000
H     6.85999966   8.98999977  58.08000183
H     7.96000004   8.00000000  53.99000168
H    16.21999931   8.42000008  53.83999634
H     5.22000027   8.48999977  56.45000076
H     5.58000040   6.96000004  55.63000107
S    13.96000004   6.21000004  50.66999817
C    11.23999977   5.73999977  51.38999939
C    12.58999920   5.56999969  51.59999847
C    13.03999996   4.92000008  52.80000305
C    12.13999939   4.38000011  53.69999695
C    10.75000000   4.48000002  53.44999695
C     9.76000023   4.05999994  54.38000107
C     8.42000008   4.30999994  54.25000000
C     7.97999954   4.92999983  53.04999924
C     8.88000011   5.28999996  52.08000183
C    10.29000092   5.15999985  52.25999832
C    14.47999954   4.92000008  53.00000000
C    15.07999992   5.61999989  51.91999817
C    16.45000076   5.84999990  51.91999817
C     6.52999973   5.27999973  52.81000137
H     6.03860998   4.62481308  52.09071732
H    10.88000107   6.30999994  50.52999878
H    12.56000042   3.75000000  54.47999954
H    10.11000061   3.55999994  55.27999878
H     7.67000008   4.01999998  54.99000168
H     8.52999973   5.65000010  51.11000061
H    16.87000084   6.50000000  51.14999771
H     5.92000008   5.36999989  53.72000122
H     6.60000038   6.25999975  52.32999802
S    17.81999969   4.36999989  55.31000137
C    20.50000000   4.96000004  54.65999985
C    19.15999985   5.03000021  54.34999847
C    18.70000076   5.69999981  53.18000031
C    19.61000061   6.24000025  52.29000092
C    20.96999931   6.34999990  52.65999603
C    21.86000061   6.94000006  51.72000122
C    23.18000031   7.03000021  52.09999847
C    23.59999847   6.57000017  53.37999725
C    22.78000069   5.86000013  54.22999954
C    21.42000008   5.69999981  53.86000061
C    17.26000023   5.53999996  53.02000046
C    16.62999916   4.92999983  54.13000107
C    15.26000023   4.69000006  54.13000107
C    25.05000114   6.86999989  53.68000031
H    25.36175728   6.25357008  54.52316284
H    20.84000015   4.61999989  55.63000107
H    19.23999977   6.70000029  51.38000107
H    21.47000122   7.31999969  50.77999878
H    23.92000008   7.40999985  51.39999771
H    23.21000099   5.47999954  55.14999771
H    14.73999977   4.21000004  54.95999908
H    25.15999985   7.95000029  53.81999969
H    25.63999939   6.58999968  52.80000305
