96

S    16.87999916   9.52000046  58.80000305
C    19.52999878   9.52000046  58.06999969
C    18.22999954   9.35999966  57.65999603
C    17.85000038   9.02000046  56.31999969
C    18.84000015   8.88000011  55.37000275
C    20.20000076   8.98999977  55.72000122
C    21.21000099   9.03999996  54.72000122
C    22.50000000   9.38000011  55.06000137
C    22.86999893   9.65999985  56.39999771
C    21.90999985   9.55999947  57.38999939
C    20.53999901   9.34000015  57.08000183
C    16.39999962   8.89000034  56.29000092
C    15.72000027   9.15000057  57.50999832
C    14.34000015   9.30999947  57.62000275
C    24.23999977  10.19000053  56.72999954
H    24.79541397   9.56337929  57.42782593
H    19.79999924   9.90999985  59.05000305
H    18.53000069   8.76000023  54.33000183
H    20.95000076   8.94999981  53.67000198
H    23.19000053   9.61000061  54.26000214
H    22.06999969   9.85000038  58.41999817
H    13.90999985   9.63000011  58.55999756
H    24.79000092  10.25000000  55.77999878
H    24.04000092  11.21000099  57.08000183
S    13.07999992   8.10999966  54.08000183
C    10.39000034   8.00000000  54.84000397
C    11.69000053   8.31999969  55.15999603
C    12.09000015   8.89000034  56.42000198
C    11.10999966   9.04999924  57.37999725
C     9.76000023   8.75000000  57.08000183
C     8.71000004   8.96000004  58.01000214
C     7.37999964   8.75000000  57.70000076
C     7.00000000   8.19000053  56.45999908
C     8.00000000   7.92000008  55.56000137
C     9.38000011   8.19000053  55.80999756
C    13.53999996   8.97000027  56.52999878
C    14.22000027   8.55000019  55.35999680
C    15.59999943   8.64999962  55.17000198
C     5.63000011   7.63999987  56.12999725
H     5.09048271   8.36408901  55.51949310
H    10.18000031   7.46000004  53.92000198
H    11.38000011   9.34000015  58.40000153
H     9.03999996   9.30000019  58.99000168
H     6.70000029   9.02999973  58.50000000
H     7.76999998   7.40999985  54.61999893
H    16.07999992   8.36999989  54.23999786
H     5.17000008   7.26000023  57.04999924
H     5.72000027   6.76000023  55.48999786
S    17.01000023  10.39000034  52.63000107
C    19.73999977  10.39000034  51.95000076
C    18.45000076   9.96999931  51.68000031
C    18.18000031   9.50000000  50.34999847
C    19.20999908   9.32999992  49.45999908
C    20.55000114   9.68999958  49.73999786
C    21.65999985   9.43000031  48.88000107
C    22.88000107   9.94000053  49.22999954
C    23.05000114  10.72000027  50.40999985
C    22.07999992  10.78999996  51.38999939
C    20.79999924  10.29999924  51.02000427
C    16.73999977   9.48999977  50.11000061
C    16.02000046  10.01999950  51.20999908
C    14.63000107  10.14999962  51.25000000
C    24.43000031  11.19999981  50.77999878
H    24.90633392  10.51749134  51.48383713
H    19.96000099  10.97000027  52.84000015
H    18.97999954   8.80000019  48.54000092
H    21.54999924   8.80999947  47.98999786
H    23.74000168   9.61999989  48.63999939
H    22.25000000  11.33999920  52.30999756
H    14.01999950  10.31999969  52.12999725
H    25.00000000  11.26000023  49.84000397
H    24.30000114  12.22000027  51.16000366
S    13.52000046   8.67999935  47.77999878
C    10.82999992   8.43000031  48.59000397
C    12.10000038   8.89000034  48.82999802
C    12.46000099   9.44000053  50.11000061
C    11.52999973   9.55000019  51.11999893
C    10.19000053   9.19999981  50.80999756
C     9.15999985   9.26000023  51.79000092
C     7.88000011   8.90999985  51.45000076
C     7.48000050   8.38999939  50.20000076
C     8.47999954   8.17000008  49.27999878
C     9.81999969   8.59000015  49.55999756
C    13.88000011   9.75000000  50.13999939
C    14.63000107   9.34000015  49.00000000
C    16.00000000   9.13000011  48.96999741
C     6.07999992   7.90000010  49.86999893
H     5.60285282   8.49821377  49.09374619
H    10.59000015   7.95000029  47.63999939
H    11.78999996   9.92000008  52.11000061
H     9.34000015   9.55000019  52.81999969
H     7.17000008   8.97000027  52.28000259
H     8.19000053   7.71000004  48.34999847
H    16.67000008   8.86999989  48.15999985
H     5.56999969   7.73000002  50.81999969
H     6.21999979   6.90000010  49.43999863
