96

S    16.95999908   9.56999969  58.90999603
C    19.65999985   9.72999954  58.18999863
C    18.37000084   9.43000031  57.84000015
C    18.02999878   9.00000000  56.52000046
C    19.05999947   8.76999950  55.61999893
C    20.40999985   8.97999954  55.98999786
C    21.47999954   8.78999996  55.06999969
C    22.79000092   9.10000038  55.34000015
C    23.12999916   9.56999969  56.63999939
C    22.10000038   9.78999996  57.52999878
C    20.72999954   9.50000000  57.29000092
C    16.59000015   8.85999966  56.37000275
C    15.88999939   9.26000023  57.52999878
C    14.50000000   9.30000019  57.51999664
C    24.50000000  10.01999950  57.09000015
H    24.74893570   9.37987423  57.93638611
H    19.97999954  10.07999992  59.16999817
H    18.89999962   8.56000042  54.55999756
H    21.18000031   8.32999992  54.13000107
H    23.59999847   8.93000031  54.62999725
H    22.29000092  10.43000031  58.40000153
H    13.89999962   9.55999947  58.39000320
H    25.25000000   9.90999985  56.30000305
H    24.44999886  11.07999992  57.35000229
S    13.47000027   7.86999989  53.97999573
C    10.75000000   7.99000025  54.52000046
C    12.02000046   8.39999962  54.86000061
C    12.35000038   8.96000004  56.13999939
C    11.31000042   9.30000019  56.97999954
C     9.98000050   8.93999958  56.65999985
C     8.90999985   9.06000042  57.60000229
C     7.59000015   8.88000011  57.28000259
C     7.31999969   8.28999996  56.02000427
C     8.32999992   7.92000008  55.15999603
C     9.68000031   8.30000019  55.40000153
C    13.78999901   8.98999977  56.35000229
C    14.52999973   8.56000042  55.21999741
C    15.92000008   8.45000076  55.20999908
C     5.96000004   7.72000027  55.68000031
H     5.33608866   8.38645077  55.08444977
H    10.57000065   7.53000021  53.55999756
H    11.46000004   9.73999977  57.95999908
H     9.26000023   9.36999989  58.57999802
H     6.85999966   9.26000023  57.98999786
H     8.27999973   7.28999996  54.27000046
H    16.40999985   8.10000038  54.31000137
H     5.38999987   7.40999985  56.56000137
H     6.11000013   6.84999990  55.02999878
S    13.76000023   5.75999975  50.84999847
C    11.02000046   5.46000004  51.43000031
C    12.34000015   5.17000008  51.72999954
C    12.74000072   4.51999998  52.94000244
C    11.72999954   4.15000010  53.80000305
C    10.36999893   4.44000006  53.53000259
C     9.28999996   3.95000005  54.33000183
C     7.96999979   4.13999987  54.00000000
C     7.59999990   4.86000013  52.84000015
C     8.60000038   5.19999981  51.95999908
C     9.98000050   5.09000015  52.30999756
C    14.14999962   4.76999998  53.23999786
C    14.84000015   5.50000000  52.23999786
C    16.18999863   5.82999992  52.31999969
C     6.15000010   4.79999971  52.42000198
H     5.82158566   4.00038147  51.75603485
H    10.77000046   6.01000023  50.52999878
H    11.94000053   3.75999975  54.79000092
H     9.68999958   3.24000001  55.05000305
H     7.22000027   3.54999995  54.52999878
H     8.31999969   5.65999985  51.00999832
H    16.57999992   6.47000027  51.53999710
H     5.53999996   4.76999998  53.33000183
H     5.91000032   5.75999975  51.93999863
S    17.40999985   4.02999973  55.61000061
C    20.10000038   4.76000023  55.10000229
C    18.75000000   4.94000006  54.88999939
C    18.31999969   5.69999981  53.75999832
C    19.26000023   6.24000025  52.90000153
C    20.65000153   6.00000000  53.06000137
C    21.61999893   6.63000011  52.22999954
C    22.95000076   6.37000036  52.48000336
C    23.42000008   5.50000000  53.50000000
C    22.49000168   5.07999992  54.41999817
C    21.09000015   5.26000023  54.20999908
C    16.90999985   5.50000000  53.47000122
C    16.27000046   4.63000011  54.38999939
C    14.89999962   4.38000011  54.34999847
C    24.86999893   5.09000015  53.66000366
H    25.27530670   5.57352638  54.54883957
H    20.40999985   4.17000008  55.94999695
H    18.93000031   6.85999966  52.06999969
H    21.30000114   7.25000000  51.39999771
H    23.62999916   6.90000010  51.83000183
H    22.78000069   4.55999994  55.33000183
H    14.46000004   3.70000005  55.06999969
H    25.52000046   5.26999998  52.78999710
H    24.94999886   4.00999975  53.82999802
