96

S    17.10000038   9.63999939  58.95999908
C    19.84000015   9.35000038  58.37999725
C    18.53000069   9.15000057  58.02999878
C    18.13999939   8.57999992  56.77000046
C    19.07999992   8.36000061  55.79000092
C    20.40999985   8.73999977  56.06999969
C    21.34000015   8.82000065  54.99000168
C    22.63999939   9.22000027  55.20000076
C    23.09000015   9.59999943  56.49000168
C    22.15999985   9.68999958  57.50000000
C    20.79999924   9.30999947  57.34000397
C    16.69000053   8.51000023  56.59000015
C    16.00000000   8.97000027  57.74000168
C    14.61999989   9.07999992  57.69000244
C    24.54999924   9.78999996  56.84999847
H    24.94152832   9.09236622  57.59034348
H    20.00999832   9.61999989  59.41999817
H    18.81000137   7.97999954  54.79999924
H    21.01000023   8.59000015  53.97999573
H    23.36000061   9.19999981  54.38999939
H    22.46999931  10.01000023  58.48999786
H    14.09000015   9.27999973  58.61999893
H    25.25000000   9.77000046  56.00999832
H    24.60000038  10.73999977  57.39999771
S    13.55000019   8.11999989  54.00000000
C    10.84000015   7.76999998  54.79000092
C    12.13999939   8.11999989  55.07999802
C    12.43999958   8.67999935  56.36000061
C    11.44999981   8.76999950  57.31999969
C    10.11000061   8.51000023  56.97000122
C     9.07999992   8.63000011  57.94000244
C     7.79999971   8.22000027  57.65999603
C     7.46999979   7.57999992  56.43000031
C     8.46000004   7.37999964  55.50000000
C     9.78999996   7.81000042  55.75000000
C    13.89000034   8.76999950  56.53999710
C    14.63000107   8.46000004  55.37000275
C    16.01000023   8.30000019  55.38000107
C     6.10000038   7.11000013  56.00000000
H     5.70256281   7.79132128  55.24770737
H    10.62000084   7.31999969  53.81999969
H    11.72000027   9.01000023  58.34000015
H     9.35000038   9.07999992  58.89999771
H     7.04999971   8.36999989  58.43000031
H     8.10000038   7.03000021  54.54000092
H    16.57999992   7.92000008  54.54000092
H     5.45000029   7.11999989  56.88000107
H     6.02999973   6.05999994  55.68999863
S    13.36999989   6.01000023  51.18000031
C    10.77000046   5.53999996  51.86999893
C    12.09000015   5.28999996  52.15999985
C    12.50000000   4.55999994  53.33000183
C    11.51000023   4.17000008  54.22000122
C    10.14999962   4.51999998  54.06000137
C     9.13999939   3.94000006  54.86999893
C     7.78999996   4.05000019  54.64000320
C     7.40999985   4.76000023  53.47000122
C     8.38000011   5.27999973  52.63999939
C     9.78999996   5.18000031  52.83000183
C    13.93000031   4.74000025  53.50000000
C    14.51000023   5.42000008  52.39999771
C    15.85000038   5.79999971  52.34000397
C     5.98999977   4.67000008  52.95000076
H     5.81919813   3.75194120  52.38777924
H    10.52999973   6.12999964  50.97999954
H    11.69999981   3.40000010  54.95999908
H     9.46000004   3.24000001  55.63000107
H     7.11000013   3.45999980  55.24000168
H     8.09000015   5.46000004  51.60999680
H    16.21999931   6.50000000  51.59000015
H     5.26000023   4.86000013  53.75000000
H     5.92000008   5.51000023  52.25000000
S    17.40999985   4.15999985  55.61999893
C    19.96999931   5.09999990  55.04000092
C    18.63000107   5.09000015  54.72999954
C    18.11000061   5.55999994  53.47999954
C    18.97999954   6.07999992  52.54000092
C    20.36999893   6.11000013  52.81999969
C    21.31000137   6.51000023  51.84000015
C    22.65999985   6.39999962  52.09999847
C    23.21000099   5.88999987  53.29999924
C    22.27999878   5.46000004  54.22999954
C    20.88000107   5.56999969  54.06000137
C    16.67000008   5.36000013  53.37999725
C    16.14999962   4.59000015  54.45000076
C    14.80999947   4.21999979  54.45999908
C    24.69000053   5.98999977  53.61000061
H    24.99591637   5.38528252  54.46371841
H    20.36999893   4.46000004  55.81999969
H    18.60999870   6.39999962  51.56999969
H    20.88999939   6.91999960  50.91999817
H    23.52999878   6.56000042  51.46999741
H    22.59000015   5.05999994  55.19000244
H    14.34000015   3.53999996  55.15999603
H    24.99000168   7.03999996  53.74000168
H    25.17999840   5.64000034  52.70000076
