96

S    17.27000046   8.85999966  58.97999573
C    19.93999863   9.42000008  58.29000092
C    18.68999863   8.96000004  57.91999817
C    18.36000061   8.69000053  56.56000137
C    19.40000153   8.65999985  55.63999939
C    20.71000099   9.09000015  55.96000290
C    21.75000000   9.15000057  55.00000000
C    23.02000046   9.57999992  55.31000137
C    23.23999786   9.92999935  56.65999985
C    22.30999947   9.81999969  57.67000198
C    20.97999954   9.44000053  57.32999802
C    16.95999908   8.34999943  56.38000107
C    16.22999954   8.51000023  57.57999802
C    14.85999966   8.71000004  57.63999939
C    24.67000008  10.21999931  57.08000183
H    24.98258400   9.69428921  57.98223114
H    20.12000084   9.92999935  59.22999954
H    19.22000122   8.34999943  54.61000061
H    21.42000008   8.93000031  53.99000168
H    23.88000107   9.68000031  54.65000153
H    22.62000084   9.94000053  58.70999908
H    14.44000053   9.06999969  58.57999802
H    25.30999947   9.92000008  56.24000168
H    24.77000046  11.31999969  57.09999847
S    13.71999931   8.19999981  53.89999771
C    11.00000000   8.14000034  54.52000046
C    12.28999996   8.38999939  54.93999863
C    12.69000053   8.67999935  56.27999878
C    11.69000053   8.64999962  57.23999786
C    10.34999943   8.32999992  56.90000153
C     9.42000008   8.07999992  57.94000244
C     8.10000038   7.82999992  57.63999939
C     7.72000027   7.55999994  56.30000305
C     8.64999962   7.69999981  55.28999710
C    10.00000000   8.09000015  55.52000046
C    14.13000011   8.63000011  56.44000244
C    14.84000015   8.25000000  55.27000046
C    16.21999931   8.07999992  55.21999741
C     6.25000000   7.30999994  56.07999802
H     5.81581450   7.95772028  55.31839371
H    10.85999966   7.72000027  53.53000259
H    12.05000019   8.67999935  58.26000214
H     9.59999943   8.52999973  58.92000198
H     7.37999964   7.82999992  58.44999695
H     8.38000011   7.40000010  54.27999878
H    16.77999878   7.92000008  54.31000137
H     5.78000021   7.32999992  57.08000183
H     6.01999998   6.28000021  55.77999878
S    13.50000000   6.19999981  50.70999908
C    10.84000015   5.84000015  51.62000275
C    12.20000076   5.65000010  51.77999878
C    12.79999924   4.92999983  52.85999680
C    11.92000008   4.39000034  53.79000092
C    10.52000046   4.50000000  53.69999695
C     9.63000011   3.81000018  54.58000183
C     8.27000046   3.98000002  54.43000031
C     7.73999977   4.67999983  53.31999969
C     8.59000015   5.31000042  52.43999863
C    10.00000000   5.28999996  52.61000061
C    14.25000000   4.90999985  52.77000046
C    14.85000038   5.64000034  51.70999908
C    16.20000076   5.96000004  51.72999954
C     6.25000000   4.86999989  53.11000061
H     5.90153933   4.47175980  52.15706635
H    10.34999943   6.21999979  50.72999954
H    12.23999977   3.72000003  54.58000183
H    10.00000000   3.19999981  55.40000153
H     7.63000011   3.42999983  55.12000275
H     8.25000000   5.73000002  51.50000000
H    16.60000038   6.48999977  50.86000061
H     5.63000011   4.44000006  53.89999771
H     5.98000002   5.92999983  53.13000107
S    17.56000137   4.38000011  55.08999634
C    20.20000076   5.05999994  54.62999725
C    18.89999962   5.09999990  54.18000031
C    18.45000076   5.79999971  53.02000046
C    19.42000008   6.37000036  52.22000122
C    20.76999855   6.34999990  52.63000107
C    21.77999878   6.96000004  51.83000183
C    23.09999847   7.00999975  52.22999954
C    23.51000023   6.38999987  53.43999863
C    22.56000137   5.78000021  54.22000122
C    21.17000198   5.79999971  53.89999771
C    17.01000023   5.65000010  52.81999969
C    16.39000130   4.88000011  53.83999634
C    15.05000019   4.51000023  53.85000229
C    24.96000099   5.96000004  53.57999802
H    25.33737183   6.30889082  54.54122925
H    20.34000015   4.63999987  55.61999893
H    19.11999893   6.90000010  51.31999969
H    21.38999939   7.42000008  50.93000031
H    23.90999985   7.34000015  51.59999847
H    22.90999985   5.23000002  55.07999802
H    14.57999992   4.03999996  54.71000290
H    25.55999947   6.51000023  52.83000183
H    25.10999870   4.90000010  53.34999847
