96

S    17.32999992   9.63999939  59.20000076
C    20.10000038   9.63999939  58.43000031
C    18.76000023   9.39000034  58.18999863
C    18.38999939   8.97000027  56.86999893
C    19.36000061   8.71000004  55.90999985
C    20.71000099   9.06000042  56.11999893
C    21.73999977   8.94999981  55.13999939
C    23.03999901   9.34000015  55.34000015
C    23.36999893   9.85000038  56.63000107
C    22.43999863   9.94000053  57.63000107
C    21.09000015   9.55000019  57.42000198
C    16.95999908   9.07999992  56.65000153
C    16.26000023   9.55999947  57.78999710
C    14.88999939   9.78999996  57.75000000
C    24.76000023  10.39000034  56.90000153
H    25.24358749   9.66461754  57.55426788
H    20.31999969  10.08999920  59.38999939
H    19.02000046   8.40999985  54.92000198
H    21.40999985   8.51000023  54.20000076
H    23.72999954   9.18000031  54.52000046
H    22.63000107  10.31000042  58.63999939
H    14.37999916  10.06000042  58.67000198
H    25.36000061  10.53999996  55.98999786
H    24.57999992  11.39000034  57.30999756
S    13.85000038   8.21000004  54.26000214
C    11.11999989   8.50000000  54.80999756
C    12.42000008   8.73999977  55.17000198
C    12.77999973   9.30999947  56.43000031
C    11.80999947   9.34000015  57.42000198
C    10.47000027   8.96000004  57.16999817
C     9.42000008   8.97999954  58.13000107
C     8.14999962   8.51000023  57.88999939
C     7.76999998   8.23999977  56.55000305
C     8.76999950   8.19000053  55.61999893
C    10.14000034   8.53999996  55.84000015
C    14.22999954   9.36999989  56.59000015
C    14.96000099   8.82999992  55.50000000
C    16.32999992   8.63000011  55.47999954
C     6.38000011   7.76999998  56.17000198
H     5.80239773   8.49735069  55.59953308
H    10.82999992   8.11999989  53.82999802
H    12.02000046   9.63999939  58.43999863
H     9.81999969   9.25000000  59.10999680
H     7.44000006   8.50000000  58.72000122
H     8.43000031   7.82000017  54.65000153
H    16.76000023   8.01000023  54.69999695
H     5.79999971   7.46000004  57.04000092
H     6.61000013   6.90999985  55.52999878
S    17.30999947  10.11000061  52.68000031
C    20.02000046   9.98000050  52.04000092
C    18.71999931   9.72999954  51.66999817
C    18.36000061   9.39999962  50.31999969
C    19.37999916   9.50000000  49.38999939
C    20.75000000   9.72000027  49.65000153
C    21.84999847   9.68000031  48.75000000
C    23.12000084  10.00000000  49.16999817
C    23.34000015  10.43000031  50.51000214
C    22.29000092  10.59000015  51.37000275
C    21.00000000  10.10000038  51.02000427
C    16.92000008   9.31999969  50.13999939
C    16.23999977   9.71000004  51.32999802
C    14.86999989   9.94000053  51.23000336
C    24.70999908  10.92000008  50.93000031
H    25.23786545  10.26373386  51.62193298
H    20.28000069  10.27999973  53.04999924
H    19.10000038   9.23999977  48.36999893
H    21.75000000   9.35999966  47.71999741
H    23.98999977   9.86999989  48.53000259
H    22.30999947  11.02000046  52.36999893
H    14.35999966  10.29999924  52.11999893
H    25.26000023  11.13000011  50.00000000
H    24.48999786  11.89000034  51.39999771
S    13.82999992   8.73999977  47.60000229
C    11.10000038   8.89999962  48.08000183
C    12.38000011   9.09000015  48.54999924
C    12.74000072   9.63000011  49.82999802
C    11.72000027   9.81000042  50.75000000
C    10.36999893   9.61000061  50.37000275
C     9.31999969   9.68999958  51.31999969
C     8.01999950   9.30999947  51.04999924
C     7.69999981   8.84000015  49.73999786
C     8.73999977   8.73000050  48.83999634
C    10.07999992   9.15999985  49.02999878
C    14.18000031   9.72000027  50.02999878
C    14.91000080   9.26999950  48.89999771
C    16.28000069   9.06999969  48.92000198
C     6.28999996   8.47000027  49.36000061
H     5.82153225   9.18689823  48.68569183
H    10.90999985   8.38999939  47.12999725
H    11.95000076  10.11000061  51.76000214
H     9.52000046   9.92000008  52.36000061
H     7.23000002   9.31999969  51.79999924
H     8.57999992   8.27000046  47.87000275
H    16.79999924   8.80000019  48.00000000
H     5.78999996   8.36999989  50.33000183
H     6.48000002   7.53000021  48.83999634
