96

S    17.04000092   9.35999966  58.88000107
C    19.72999954   9.55999947  58.13000107
C    18.47999954   9.06999969  57.87000275
C    18.12000084   8.61999989  56.56000137
C    19.07999992   8.61999989  55.56000137
C    20.43999863   8.85000038  55.86000061
C    21.53000069   8.64999962  54.95999908
C    22.82999992   8.92000008  55.31000137
C    23.12000084   9.36999989  56.62000275
C    22.10000038   9.63999939  57.50999832
C    20.75000000   9.42000008  57.15000153
C    16.68000031   8.50000000  56.38000107
C    15.98000050   9.03999996  57.49000168
C    14.60000038   9.19000053  57.50000000
C    24.51999855   9.73999977  57.06999969
H    24.83951759   9.24297142  57.98595428
H    19.85999870  10.13000011  59.03999710
H    18.88000107   8.10999966  54.61999893
H    21.27000046   8.38000011  53.94000244
H    23.52999878   8.78999996  54.48999786
H    22.15999985  10.14000034  58.47000122
H    14.06999969   9.44999981  58.41999817
H    25.17999840   9.48999977  56.23000336
H    24.56999969  10.81999969  57.25999832
S    13.55000019   7.90999985  53.87000275
C    10.90000057   7.76999998  54.61000061
C    12.17000008   8.17000008  54.94999695
C    12.44999981   8.82999992  56.18999863
C    11.39999962   9.02000046  57.08000183
C    10.10000038   8.57999992  56.73999786
C     9.06000042   8.80000019  57.69000244
C     7.79999971   8.30999947  57.44999695
C     7.51999950   7.67000008  56.20999908
C     8.47999954   7.42999983  55.26000214
C     9.80000019   7.92000008  55.50000000
C    13.89000034   8.96000004  56.31999969
C    14.60000038   8.47000027  55.19000244
C    15.95000076   8.14999962  55.24000168
C     6.10000038   7.21000004  55.94999695
H     5.57945633   7.71628237  55.13709259
H    10.80000019   7.22000027  53.68000031
H    11.65999985   9.52000046  58.01000214
H     9.22999954   9.27999973  58.66000366
H     7.03999996   8.28999996  58.22000122
H     8.34000015   6.91999960  54.31000137
H    16.44000053   7.69000006  54.38000107
H     5.53999996   7.44999981  56.86000061
H     6.19000006   6.11999989  55.89000320
S    17.19000053   9.89000034  52.49000168
C    19.78999901  10.21000004  51.68000031
C    18.59000015   9.57999992  51.45000076
C    18.22999954   9.13000011  50.13999939
C    19.26000023   8.94999981  49.23999786
C    20.58000183   9.36999989  49.52999878
C    21.64999962   9.26999950  48.60000229
C    22.89999962   9.77000046  48.85000229
C    23.21000099  10.29999924  50.13000107
C    22.21999931  10.34999943  51.07999802
C    20.86999893   9.98000050  50.79999924
C    16.77999878   9.06000042  50.06000137
C    16.04999924   9.44999981  51.20999908
C    14.65999985   9.57999992  51.25000000
C    24.61000061  10.72999954  50.48999786
H    24.97249031  10.09741974  51.30027008
H    19.97999954  10.57000065  52.69000244
H    19.03000069   8.61999989  48.22000122
H    21.37000084   8.93999958  47.60000229
H    23.72999954   9.88000011  48.15999985
H    22.43999863  10.77000046  52.05999756
H    14.07999992  10.03000069  52.04999924
H    25.19000053  10.59999943  49.56999969
H    24.54999924  11.79999924  50.70000076
S    13.50999928   7.92999983  47.81999969
C    10.82999992   7.90999985  48.69999695
C    12.13999939   8.27999973  48.90999603
C    12.51000023   9.01000023  50.07999802
C    11.56999969   9.30999947  51.04999924
C    10.19999981   9.04999924  50.81999969
C     9.18000031   9.13999939  51.81000137
C     7.92000008   8.64000034  51.58000183
C     7.50999975   8.14999962  50.31000137
C     8.50000000   7.90999985  49.38999939
C     9.85999966   8.25000000  49.66999817
C    13.96000004   9.06000042  50.14999771
C    14.65999985   8.52999973  49.02999878
C    16.04999924   8.53999996  48.97999573
C     6.06999969   7.88999987  49.93000031
H     5.60096407   8.45852852  49.12695694
H    10.67999935   7.22000027  47.88000107
H    11.87000084   9.64999962  52.04000092
H     9.53999996   9.46000004  52.77999878
H     7.20000029   8.80999947  52.36999893
H     8.27000046   7.62000036  48.36999893
H    16.54000092   8.14000034  48.09999847
H     5.36000013   7.90999985  50.77000046
H     5.92999983   6.86999989  49.55999756
