96

S    17.04000092   9.36999989  58.68999863
C    19.76000023   9.35000038  58.01000214
C    18.45999908   9.06999969  57.65999603
C    18.09999847   8.59000015  56.36000061
C    19.04999924   8.36000061  55.38999939
C    20.40999985   8.59000015  55.72999954
C    21.44000053   8.52000046  54.75999832
C    22.67999840   9.10000038  54.95999908
C    23.05000114   9.52999973  56.25999832
C    22.11000061   9.46000004  57.25999832
C    20.75000000   9.10000038  57.04000092
C    16.64999962   8.47000027  56.24000168
C    15.93999958   9.00000000  57.35000229
C    14.55000019   9.06000042  57.39999771
C    24.38999939  10.15999985  56.55000305
H    24.80821609   9.55039787  57.35099030
H    19.88999939   9.76000023  59.01000214
H    18.71000099   7.96000004  54.43999863
H    21.14000130   8.39999962  53.72000122
H    23.28000069   9.22000027  54.06000137
H    22.25000000   9.96000004  58.22000122
H    14.09999943   9.57999992  58.23999786
H    25.00999832  10.11999989  55.63999939
H    24.13000107  11.14999962  56.95000076
S    13.45999908   7.64999962  53.82999802
C    10.75000000   7.73000002  54.54999924
C    12.05000019   8.13000011  54.79000092
C    12.36999989   8.69000053  56.06999969
C    11.36000061   8.80999947  57.01000214
C    10.01000023   8.43000031  56.83000183
C     8.93999958   8.60000038  57.75000000
C     7.64999962   8.25000000  57.43999863
C     7.40000010   7.83999968  56.11000061
C     8.38999939   7.63999987  55.17000198
C     9.73999977   7.88000011  55.52999878
C    13.81000042   8.64999962  56.27999878
C    14.51000023   8.07999992  55.19000244
C    15.90000057   8.05999947  55.13000107
C     5.97000027   7.51999950  55.72000122
H     5.68405342   7.98466253  54.77637863
H    10.40999985   7.35000038  53.59000397
H    11.57999992   9.23999977  57.98999786
H     9.13999939   9.01000023  58.74000168
H     6.85999966   8.52000046  58.13000107
H     8.09000015   7.32999992  54.16999817
H    16.40999985   7.73999977  54.22999954
H     5.33999968   7.86999989  56.55000305
H     5.92000008   6.43000031  55.65999985
S    17.26000023  10.06999969  52.56000137
C    20.03000069  10.21000004  52.02000046
C    18.73999977   9.96000004  51.59000015
C    18.38000107   9.40999985  50.31999969
C    19.42000008   9.00000000  49.52000046
C    20.76999855   9.32999992  49.81999969
C    21.80999947   9.26999950  48.85000229
C    23.09000015   9.72999954  49.05000305
C    23.34000015  10.26999950  50.34000015
C    22.36999893  10.46000004  51.30000305
C    21.04000092  10.01999950  51.04999924
C    16.95000076   9.26000023  50.07999802
C    16.18999863   9.56999969  51.24000168
C    14.80000019   9.52999973  51.17000198
C    24.73999977  10.73999977  50.65000153
H    25.04507828  10.20788574  51.55104446
H    20.23999977  10.67000008  52.97999954
H    19.12999916   8.51000023  48.59000397
H    21.59000015   8.80999947  47.88999939
H    23.85999870   9.59000015  48.29999924
H    22.55000114  10.95000076  52.25000000
H    14.30999947   9.86999989  52.08000183
H    25.48000145  10.67999935  49.84000397
H    24.54000092  11.78999996  50.90999985
S    13.86000061   8.14000034  47.62000275
C    11.14999962   7.85000038  48.23999786
C    12.39999962   8.32999992  48.59000397
C    12.71000004   8.89999962  49.86999893
C    11.65999985   9.13000011  50.73999786
C    10.32999992   8.78000069  50.38999939
C     9.32999992   9.02000046  51.37000275
C     8.03999996   8.60000038  51.12999725
C     7.73000002   8.05000019  49.86000061
C     8.73999977   7.67000008  49.00000000
C    10.08999920   8.07999992  49.15000153
C    14.14000034   9.13999939  50.00999832
C    14.93000031   8.80999947  48.87000275
C    16.31999969   8.85999966  48.89999771
C     6.28999996   7.73000002  49.54999924
H     5.89220715   8.43324089  48.81834793
H    11.00000000   7.22000027  47.36999893
H    11.82999992   9.64999962  51.68000031
H     9.63999939   9.39999962  52.34000397
H     7.40999985   8.56999969  52.02000046
H     8.55000019   7.00999975  48.16999817
H    16.95000076   8.56000042  48.06999969
H     5.69000006   7.63999987  50.45999908
H     6.26999950   6.71000004  49.13999939
