96

S    17.00000000   9.19000053  58.90999603
C    19.72999954   9.23999977  58.15999985
C    18.40999985   9.03999996  57.84000015
C    18.09999847   8.52999973  56.53999710
C    19.11000061   8.19999981  55.65999985
C    20.48000145   8.31999969  55.97999954
C    21.57999992   7.92999983  55.15999603
C    22.86999893   8.28999996  55.44000244
C    23.13999939   9.06000042  56.59999847
C    22.11000061   9.39000034  57.44999695
C    20.76000023   8.98999977  57.22000122
C    16.65999985   8.39999962  56.38000107
C    15.95000076   8.85000038  57.52999878
C    14.56999969   8.96000004  57.52999878
C    24.56999969   9.48000050  56.86999893
H    24.91929436   9.16634846  57.85372543
H    20.02000046   9.50000000  59.18000031
H    18.78000069   7.90999985  54.66999817
H    21.47000122   7.40000010  54.20999908
H    23.72999954   7.86000013  54.93000031
H    22.25000000  10.01000023  58.33000183
H    14.00000000   9.27999973  58.40000153
H    25.22000122   9.04999924  56.10000229
H    24.56999969  10.57000065  56.77000046
S    13.50999928   7.44000006  53.99000168
C    10.82999992   7.17000008  54.78000259
C    12.09000015   7.67000008  55.02999878
C    12.43000031   8.27999973  56.27999878
C    11.47999954   8.46000004  57.27000427
C    10.14000034   8.10999966  56.98999786
C     9.10000038   8.10000038  57.97000122
C     7.82000017   7.73000002  57.63000107
C     7.49000025   7.17999983  56.37000275
C     8.56000042   6.83000040  55.56999969
C     9.85000038   7.40000010  55.77999878
C    13.86999989   8.48999977  56.40999603
C    14.57999992   7.96000004  55.30000305
C    15.97000027   7.85000038  55.28999710
C     6.11000013   6.61999989  56.09000397
H     5.52903509   7.40642786  55.60822678
H    10.65999985   6.70000029  53.81999969
H    11.78999996   8.85999966  58.22999954
H     9.31999969   8.48999977  58.95999908
H     7.05999947   7.88999987  58.39000320
H     8.34000015   6.03999996  54.86000061
H    16.53000069   7.36999989  54.50000000
H     5.59999990   6.47000027  57.04999924
H     6.30000019   5.77000046  55.44000244
S    17.34000015   9.67000008  52.94000244
C    20.06000137   9.65999985  52.28000259
C    18.76000023   9.40999985  51.90000153
C    18.38999939   8.97999954  50.59000015
C    19.42000008   8.73000050  49.69999695
C    20.78000069   8.89999962  50.04000092
C    21.77000046   8.96000004  49.02000046
C    23.06999969   9.31999969  49.26000214
C    23.39999962   9.56999969  50.61999893
C    22.46000099   9.72999954  51.60999680
C    21.09999847   9.43000031  51.33999634
C    16.95000076   8.85999966  50.45999908
C    16.22999954   9.30999947  51.59999847
C    14.84000015   9.42000008  51.58000183
C    24.86000061   9.78999996  50.90000153
H    25.34573174   9.21140575  51.68574524
H    20.32999992  10.03999901  53.25000000
H    19.26000023   8.42000008  48.66000366
H    21.52000046   8.59000015  48.02000046
H    23.78000069   9.34000015  48.43000031
H    22.77000046  10.11999989  52.57999802
H    14.37999916   9.68000031  52.52999878
H    25.35000038   9.98000050  49.93000031
H    24.86999893  10.76000023  51.40999603
S    13.78000069   8.13000011  48.02000046
C    11.10999966   7.88999987  48.76999664
C    12.38999939   8.25000000  49.10999680
C    12.67000008   8.76000023  50.41999817
C    11.68000031   8.76999950  51.38999939
C    10.34000015   8.50000000  51.04999924
C     9.22999954   8.76999950  51.90999985
C     7.95000029   8.51000023  51.47999573
C     7.69000006   7.90999985  50.21999741
C     8.73999977   7.64999962  49.36999893
C    10.06999969   7.99000025  49.72999954
C    14.09000015   9.06000042  50.45999908
C    14.85999966   8.65999985  49.33000183
C    16.22999954   8.48999977  49.31000137
C     6.28999996   7.48000050  49.84000397
H     5.86349678   8.13397217  49.07940292
H    10.92000008   7.55999994  47.75000000
H    11.84000015   9.11999989  52.41000366
H     9.36999989   9.28999996  52.84999847
H     7.11000013   8.93000031  52.02000046
H     8.59000015   7.13999987  48.41999817
H    16.61000061   8.01999950  48.40000153
H     5.60999966   7.55000019  50.70000076
H     6.19999981   6.44000006  49.52000046
