96

S    17.00000000   9.36999989  58.95000076
C    19.68000031   9.73999977  58.20999908
C    18.44000053   9.22999954  57.91999817
C    18.09999847   8.71999931  56.63000107
C    19.10000038   8.56999969  55.68999863
C    20.38999939   9.11000061  55.90999985
C    21.40000153   9.25000000  54.91000366
C    22.60000038   9.82999992  55.24000168
C    22.93000031  10.18000031  56.58000183
C    21.94999886  10.19999981  57.54000092
C    20.69000053   9.59999943  57.22000122
C    16.67000008   8.52000046  56.38999939
C    15.98000050   8.92000008  57.56000137
C    14.59000015   8.82999992  57.61000061
C    24.28999901  10.77000046  56.88999939
H    24.78812981  10.20782661  57.67988968
H    19.81999969  10.39000034  59.06999969
H    18.84000015   8.17000008  54.72000122
H    21.07000160   8.89999962  53.94000244
H    23.38000107   9.92000008  54.48999786
H    22.10000038  10.59999943  58.53000259
H    14.06000042   9.06999969  58.53000259
H    24.84999847  10.81999969  55.93999863
H    24.15999985  11.82000065  57.15000153
S    13.47000027   7.85000038  53.92000198
C    10.76000023   7.48000050  54.73999786
C    12.05000019   7.88999987  54.99000168
C    12.42000008   8.30999947  56.31000137
C    11.42000008   8.40999985  57.25999832
C    10.06999969   8.03999996  57.05999756
C     9.03999996   8.02999973  58.04999924
C     7.73999977   7.81000042  57.65999603
C     7.39000034   7.49000025  56.32999802
C     8.39999962   7.26000023  55.41999817
C     9.76000023   7.55000019  55.73999786
C    13.86000061   8.42000008  56.49000168
C    14.55999947   8.14000034  55.28999710
C    15.95000076   8.14999962  55.25000000
C     5.95000029   7.17999983  56.00999832
H     5.56493187   7.57219887  55.06872177
H    10.47000027   7.27999973  53.70999908
H    11.64999962   8.50000000  58.30999756
H     9.25000000   8.30000019  59.08000183
H     6.85999966   7.81000042  58.29999924
H     8.23000050   6.88000011  54.41999817
H    16.56999969   7.86000013  54.40000153
H     5.28999996   7.39000034  56.86000061
H     5.93999958   6.07999992  56.00999832
S    13.43000031   5.58000040  51.09000397
C    10.77999973   5.03000021  51.77000046
C    12.11999989   4.86999989  52.05999756
C    12.56000042   4.26000023  53.27000046
C    11.68000031   3.78999996  54.22999954
C    10.31000042   3.93000007  53.90999603
C     9.39000034   3.45000005  54.88999939
C     8.05000019   3.67000008  54.71000290
C     7.60999966   4.30000019  53.52000427
C     8.43999958   4.76000023  52.50999832
C     9.84000015   4.63000011  52.74000168
C    14.01999950   4.28999996  53.36999893
C    14.59000015   5.07000017  52.32999802
C    15.92000008   5.46999979  52.32999802
C     6.12999964   4.48000002  53.26000214
H     5.72448397   3.78991199  52.52011490
H    10.51000023   5.59999990  50.87999725
H    12.10000038   3.09999990  54.95999908
H     9.67000008   2.87999988  55.77000046
H     7.30000019   3.33999991  55.43000031
H     8.11999989   5.19000006  51.56999969
H    16.26000023   6.01999998  51.45999908
H     5.55999994   4.44000006  54.19000244
H     6.01999998   5.51000023  52.91999817
S    17.32999992   4.09000015  55.72999954
C    19.90999985   5.03999996  55.18000031
C    18.56999969   5.03999996  54.88999939
C    18.11000061   5.59000015  53.64999771
C    18.98999977   6.14000034  52.74000168
C    20.38000107   6.15000010  53.01000214
C    21.34000015   6.76999998  52.15999985
C    22.67000008   6.76999998  52.50000000
C    23.09999847   6.05999994  53.64999771
C    22.20000076   5.77000046  54.65000153
C    20.82999992   5.66999960  54.29000092
C    16.70999908   5.23000002  53.46000290
C    16.13999939   4.40000010  54.45000076
C    14.81999969   3.95000005  54.45999908
C    24.57999992   5.92000008  53.90999603
H    25.03420448   6.50194836  54.71195221
H    20.32999992   4.69000006  56.11999893
H    18.61999893   6.69000053  51.88000107
H    20.98999977   7.22000027  51.23000336
H    23.42000008   7.00999975  51.75000000
H    22.53999901   5.42999983  55.63000107
H    14.42999935   3.50000000  55.37000275
H    25.13999939   6.10000038  52.97999954
H    24.70999908   4.88000011  54.25000000
