96

S    16.95999908   9.21000004  58.99000168
C    19.64999962   9.46000004  58.23999786
C    18.37000084   9.06000042  57.93000031
C    18.02999878   8.56000042  56.63000107
C    19.06999969   8.63000011  55.72000122
C    20.38999939   9.10000038  55.96000290
C    21.44000053   9.26000023  55.00999832
C    22.70999908   9.65999985  55.38999939
C    22.98000145  10.01000023  56.72999954
C    21.97000122  10.03999901  57.67000198
C    20.71000099   9.50000000  57.29999924
C    16.59000015   8.47999954  56.45999908
C    15.86999989   8.85000038  57.63000107
C    14.48999977   8.93000031  57.76000214
C    24.31999969  10.53999996  57.18000031
H    24.89092445   9.88343811  57.83655930
H    19.77000046   9.84000015  59.25000000
H    18.86000061   8.34000015  54.68999863
H    21.15999985   8.89000034  54.02999878
H    23.43000031   9.77000046  54.59000015
H    22.10000038  10.54999924  58.61999893
H    13.94000053   9.00000000  58.69999695
H    24.93999863  10.72000027  56.27999878
H    24.06999969  11.51999950  57.62000275
S    13.40000057   7.92999983  54.06000137
C    10.69000053   7.73999977  54.82999802
C    11.97000027   8.19000053  55.07999802
C    12.31999969   8.56999969  56.42000198
C    11.36000061   8.60999966  57.41000366
C     9.98000050   8.47999954  57.09999847
C     8.89999962   8.65999985  58.01000214
C     7.59999990   8.43999958  57.61000061
C     7.27999973   7.99000025  56.30000305
C     8.32999992   7.72000027  55.45999908
C     9.67000008   8.06999969  55.76000214
C    13.76000023   8.73999977  56.59000015
C    14.46000004   8.42000008  55.40000153
C    15.82999992   8.21000004  55.31999969
C     5.91000032   7.40999985  56.04999924
H     5.36275673   7.95724344  55.28244019
H    10.43000031   7.28999996  53.87000275
H    11.56000042   8.82000065  58.44999695
H     9.13000011   8.86999989  59.05000305
H     6.84999990   8.65999985  58.36999893
H     8.17000008   7.14999962  54.54000092
H    16.34000015   7.92999983  54.40000153
H     5.46999979   7.55000019  57.04000092
H     5.92000008   6.32000017  55.90000153
S    17.15999985   9.92999935  52.90999985
C    19.78000069  10.57999992  52.18999863
C    18.60000038   9.96000004  51.86999893
C    18.29000092   9.47000027  50.56000137
C    19.34999847   9.46000004  49.66999817
C    20.62999916  10.00000000  49.93999863
C    21.73000145   9.85000038  49.05000305
C    22.95000076  10.36000061  49.43000031
C    23.18000031  11.00000000  50.68000031
C    22.11999893  11.07999992  51.56000137
C    20.81000137  10.62999916  51.22000122
C    16.86000061   9.30999947  50.33000183
C    16.13000107   9.55999947  51.51000214
C    14.75000000   9.72000027  51.53999710
C    24.61999893  11.25000000  51.05999756
H    25.02573204  10.46700954  51.70062637
H    20.00000000  10.92000008  53.20000076
H    19.07999992   8.88000011  48.79000092
H    21.53000069   9.47000027  48.04999924
H    23.74000168  10.26999950  48.69999695
H    22.36000061  11.42000008  52.56000137
H    14.19999981  10.10000038  52.38999939
H    25.22999954  11.28999901  50.13999939
H    24.70000076  12.22000027  51.56000137
S    13.82999992   8.85000038  47.70999908
C    11.11999989   8.55000019  48.27999878
C    12.38000011   8.89999962  48.72000122
C    12.68000031   9.28999996  50.06999969
C    11.61000061   9.42000008  50.93999863
C    10.31000042   9.03999996  50.52000046
C     9.26000023   9.03999996  51.47999573
C     7.97999954   8.67999935  51.11999893
C     7.72000027   8.17000008  49.82999802
C     8.73000050   8.05999947  48.89999771
C    10.06000042   8.47999954  49.22000122
C    14.09999943   9.39000034  50.34000015
C    14.81999969   9.00000000  49.18000031
C    16.21000099   9.02999973  49.12000275
C     6.37000036   7.62000036  49.41999817
H     5.91427565   8.26086235  48.66520691
H    10.95000076   8.05999947  47.32999802
H    11.87000084   9.59000015  51.97999954
H     9.52999973   9.15999985  52.51999664
H     7.21000004   8.69999981  51.88999939
H     8.69999981   7.60999966  47.91999817
H    16.75000000   8.97000027  48.18000031
H     5.69999981   7.63000011  50.28999710
H     6.51000023   6.57999992  49.08000183
