96

S    17.14999962   9.63000011  58.77999878
C    19.81999969   9.80000019  57.90999985
C    18.53999901   9.31999969  57.71999741
C    18.06999969   8.85000038  56.45000076
C    19.01000023   8.71999931  55.45000076
C    20.35000038   9.09000015  55.70000076
C    21.37000084   8.80999947  54.73999786
C    22.70999908   8.94999981  55.04000092
C    23.13999939   9.40999985  56.31000137
C    22.21999931   9.77999973  57.25999832
C    20.84000015   9.63999939  56.93000031
C    16.61999893   8.69999981  56.37000275
C    15.98000050   9.25000000  57.50999832
C    14.59000015   9.30000019  57.60000229
C    24.61000061   9.27999973  56.65000153
H    24.86682129   9.05171299  57.68442154
H    20.09000015  10.08999920  58.92000198
H    18.77000046   8.17000008  54.54000092
H    21.09000015   8.39999962  53.76999664
H    23.39999962   8.43000031  54.38999939
H    22.39999962  10.03000069  58.29999924
H    14.00000000   9.68999958  58.41999817
H    25.10999870   8.56999969  55.97999954
H    25.15000153  10.22999954  56.56999969
S    13.52000046   7.97999954  53.97999573
C    10.88000107   7.50999975  54.77000427
C    12.10999966   8.05999947  55.05000305
C    12.41000080   8.65999985  56.31999969
C    11.36000061   8.82999992  57.19999695
C    10.03999901   8.40999985  56.90000153
C     8.90999985   8.64000034  57.75000000
C     7.64999962   8.15999985  57.48000336
C     7.44999981   7.42999983  56.27999878
C     8.47999954   7.30000019  55.37000275
C     9.78999996   7.76000023  55.63999939
C    13.83999920   8.80999947  56.52000046
C    14.55000019   8.47999954  55.34000015
C    15.92000008   8.31999969  55.21999741
C     6.05000019   7.07000017  55.84000015
H     5.55279112   7.73057795  55.12970352
H    10.88000107   6.94999981  53.83999634
H    11.46999931   9.22999954  58.20999908
H     9.11999989   9.22999954  58.62999725
H     6.81999969   8.43999958  58.11999893
H     8.30999947   7.03000021  54.33000183
H    16.35000038   8.00000000  54.27000046
H     5.46999979   6.94000006  56.76000214
H     6.25000000   6.11000013  55.34999847
S    13.78999901   6.05000019  51.02000427
C    11.14999962   5.36000013  51.70000076
C    12.50000000   5.32000017  52.00000000
C    12.93000031   4.67000008  53.20000076
C    12.01000023   4.17000008  54.09999847
C    10.62999916   4.15999985  53.77999878
C     9.68999958   3.51000023  54.62999725
C     8.36999989   3.68000007  54.29999924
C     7.90000010   4.23999977  53.09000015
C     8.82000065   4.63999987  52.15000153
C    10.19999981   4.67999983  52.50000000
C    14.37000084   4.86999989  53.33000183
C    14.96000099   5.61999989  52.28000259
C    16.31000137   5.93999958  52.21000290
C     6.40999985   4.53000021  53.06000137
H     5.98328638   4.12462282  52.14256668
H    10.82999992   5.80999947  50.77000046
H    12.36999989   3.67000008  55.00000000
H    10.10000038   2.93000007  55.45000076
H     7.63000011   3.51999998  55.07999802
H     8.52000046   5.13999987  51.23000336
H    16.70999908   6.30000019  51.26999664
H     5.88999987   4.13000011  53.94000244
H     6.38999987   5.63000011  53.06000137
S    17.79999924   4.19000006  55.45999908
C    20.39999962   4.74000025  54.77000427
C    19.07999992   4.81999969  54.40000153
C    18.61999893   5.51999998  53.23999786
C    19.60000038   6.06999969  52.43000031
C    20.96999931   5.97000027  52.74000168
C    21.96000099   6.56000042  51.88999939
C    23.29000092   6.48000002  52.21000290
C    23.71000099   5.78000021  53.37999725
C    22.79999924   5.18000031  54.22000122
C    21.40999985   5.26999998  53.92000198
C    17.17000008   5.46999979  53.22000122
C    16.59000015   4.71000004  54.27000046
C    15.22999954   4.40000010  54.31999969
C    25.19000053   5.79999971  53.68000031
H    25.49591637   5.47985554  54.67600250
H    20.69000053   4.19000006  55.65999985
H    19.26000023   6.53999996  51.51000214
H    21.68000031   7.11000013  51.00999832
H    24.02000046   6.88000011  51.51000214
H    23.09999847   4.55999994  55.05000305
H    14.91000080   3.77999997  55.14999771
H    25.50000000   6.84000015  53.54999924
H    25.65000153   5.14999962  52.91999817
