96

S    17.13999939   9.63000011  58.66000366
C    19.92000008   9.42000008  57.97000122
C    18.59000015   9.13999939  57.76000214
C    18.17000008   8.69999981  56.46999741
C    19.10000038   8.50000000  55.45999908
C    20.48000145   8.75000000  55.65000153
C    21.52000046   8.73999977  54.68000031
C    22.85000038   8.92000008  54.99000168
C    23.19999886   9.40999985  56.26999664
C    22.19000053   9.77000046  57.14000320
C    20.88000107   9.26000023  56.93999863
C    16.73999977   8.51000023  56.33999634
C    16.00000000   9.07999992  57.41000366
C    14.61999989   9.15999985  57.48000336
C    24.54999924  10.00000000  56.58000183
H    25.01840782   9.46061993  57.40326691
H    20.15000153  10.03999901  58.82999802
H    18.79999924   8.19000053  54.45999908
H    21.24000168   8.52999973  53.64999771
H    23.55999947   8.94999981  54.16999817
H    22.34999847  10.40999985  58.01000214
H    14.11000061   9.31999969  58.43000031
H    25.17999840   9.96999931  55.68000031
H    24.51000023  11.06999969  56.81000137
S    13.52000046   7.86000013  53.92000198
C    10.75000000   8.02999973  54.54999924
C    12.07999992   8.15999985  54.89999771
C    12.46999931   8.48999977  56.23000336
C    11.46999931   8.59000015  57.18000031
C    10.10000038   8.32999992  56.90000153
C     9.02999973   8.36999989  57.83000183
C     7.71000004   8.06999969  57.54000092
C     7.36000013   7.75000000  56.19999695
C     8.38000011   7.69999981  55.27999878
C     9.72999954   8.07999992  55.54000092
C    13.90999985   8.69999981  56.37000275
C    14.63999939   8.30000019  55.21999741
C    16.02000046   8.14000034  55.19000244
C     5.93999958   7.35000038  55.86000061
H     5.52026463   7.95470333  55.05609894
H    10.43000031   7.83999968  53.53000259
H    11.69000053   9.00000000  58.15999985
H     9.19999981   8.80000019  58.81000137
H     7.00000000   7.86999989  58.33000183
H     8.19000053   7.35000038  54.27000046
H    16.64999962   7.99000025  54.31999969
H     5.42000008   7.53000021  56.81000137
H     5.86999989   6.28999996  55.61000061
S    17.27000046  10.19000053  52.58999634
C    19.98999977  10.29000092  51.95000076
C    18.70000076  10.03000069  51.56000137
C    18.30000114   9.61999989  50.24000168
C    19.34999847   9.26000023  49.40999985
C    20.69000053   9.56999969  49.71000290
C    21.76000214   9.48000050  48.76999664
C    23.02999878   9.89000034  49.10999680
C    23.35000038  10.47000027  50.37000275
C    22.32999992  10.62999916  51.27999878
C    21.02000046  10.14999962  50.97999954
C    16.86000061   9.63000011  50.05000305
C    16.14999962  10.00000000  51.23000336
C    14.77000046   9.92000008  51.26999664
C    24.77999878  10.71000004  50.77000046
H    25.12199020  10.18276501  51.66059875
H    20.10000038  10.85000038  52.88000107
H    19.19000053   8.92000008  48.39000320
H    21.54999924   8.97999954  47.83000183
H    23.85000038   9.56999969  48.47999954
H    22.52000046  10.98000050  52.28000259
H    14.19999981  10.05000019  52.18999863
H    25.38000107  10.43000031  49.88999939
H    24.89999962  11.78999996  50.87999725
S    13.63999939   8.76999950  47.63999939
C    10.93999958   8.63000011  48.41999817
C    12.23999977   8.96000004  48.70999908
C    12.61999989   9.56999969  49.94999695
C    11.59999943   9.75000000  50.86999893
C    10.25000000   9.36999989  50.65000153
C     9.21000004   9.48000050  51.60999680
C     7.94000053   8.98999977  51.40999603
C     7.59999990   8.46000004  50.13000107
C     8.59000015   8.30000019  49.19000244
C     9.90999985   8.80000019  49.36999893
C    14.06999969   9.64999962  50.07999802
C    14.75999928   9.34000015  48.88999939
C    16.14999962   9.26000023  48.90999603
C     6.14000034   8.22000027  49.81999969
H     5.84142113   8.47592545  48.80340958
H    10.67999935   8.15999985  47.47000122
H    11.87000084  10.18000031  51.83000183
H     9.39000034   9.84000015  52.61000061
H     7.26999998   9.15000057  52.25000000
H     8.32999992   8.09000015  48.15000153
H    16.77000046   8.89000034  48.09000015
H     5.58000040   8.69000053  50.63000107
H     6.01999998   7.14999962  50.00999832
