96

S    16.62999916   9.68999958  58.62999725
C    19.31999969   9.85999966  57.87000275
C    18.04999924   9.38000011  57.62000275
C    17.73999977   8.63000011  56.44000244
C    18.76000023   8.40999985  55.52999878
C    20.00999832   9.04999924  55.68000031
C    21.02000046   8.80999947  54.69999695
C    22.29999924   9.18000031  55.06000137
C    22.67000008   9.85999966  56.25000000
C    21.67000008  10.19999981  57.11999893
C    20.36000061   9.67000008  56.93000031
C    16.31999969   8.34000015  56.38000107
C    15.57000065   8.97000027  57.39999771
C    14.18000031   9.02000046  57.42000198
C    24.07999992  10.36000061  56.45999908
H    24.51983452   9.72153282  57.22616196
H    19.47000122  10.39000034  58.80000305
H    18.60000038   7.76000023  54.66999817
H    20.69000053   8.13000011  53.92000198
H    23.02000046   9.11999989  54.23999786
H    21.84000015  10.71000004  58.06999969
H    13.73999977   9.31999969  58.36000061
H    24.67000008  10.32999992  55.52999878
H    24.06999969  11.40999985  56.76000214
S    13.19000053   7.26000023  54.00000000
C    10.47999954   7.37999964  54.54999924
C    11.75000000   7.76999998  54.89999771
C    12.02999973   8.42000008  56.14999771
C    11.00000000   8.76000023  57.00000000
C     9.64999962   8.47999954  56.68000031
C     8.56999969   8.67999935  57.57999802
C     7.26999998   8.36999989  57.22999954
C     7.07000017   7.68000031  56.00999832
C     8.10999966   7.42000008  55.14999771
C     9.44999981   7.79999971  55.41999817
C    13.48000050   8.50000000  56.32999802
C    14.22999954   7.86999989  55.31000137
C    15.60999966   7.73000002  55.33000183
C     5.69000006   7.13999987  55.68999863
H     5.20875120   7.78402376  54.95397186
H    10.21000004   6.65000010  53.79000092
H    11.28999901   9.15999985  57.97000122
H     8.80000019   9.02000046  58.57999802
H     6.44000006   8.55000019  57.90000153
H     7.99000025   6.67999983  54.36000061
H    16.13000107   7.36999989  54.43999863
H     5.18000031   7.00000000  56.65000153
H     5.88999987   6.21000004  55.14999771
S    17.13000107  10.00000000  52.94000244
C    19.79999924  10.27999973  52.15999985
C    18.54999924   9.77000046  51.90000153
C    18.22999954   9.21000004  50.63000107
C    19.25000000   9.03999996  49.69999695
C    20.53999901   9.55000019  49.94999695
C    21.63999939   9.31999969  49.08000183
C    22.93000031   9.70000076  49.40999985
C    23.22999954  10.34999943  50.63000107
C    22.19000053  10.54999924  51.51000214
C    20.85000038  10.17000008  51.22000122
C    16.77999878   9.21000004  50.45999908
C    16.03999901   9.48999977  51.63999939
C    14.65000057   9.59000015  51.68000031
C    24.64999962  10.72000027  51.00000000
H    25.06779099  10.02604103  51.72936249
H    19.97999954  10.73999977  53.13000107
H    19.15999985   8.36000061  48.86000061
H    21.40999985   9.02999973  48.06000137
H    23.68000031   9.52999973  48.63999939
H    22.39999962  10.95000076  52.50000000
H    14.11000061   9.89999962  52.56999969
H    25.28000069  10.71000004  50.10000229
H    24.60000038  11.76000023  51.33999634
S    13.61999989   8.53999996  47.98999786
C    10.93999958   8.10999966  48.68000031
C    12.18000031   8.63000011  49.02000046
C    12.48000050   9.15000057  50.31000137
C    11.44999981   9.21000004  51.24000168
C    10.14000034   8.78999996  50.90000153
C     9.11999989   9.06000042  51.84999847
C     7.86000013   8.63000011  51.51000214
C     7.53000021   8.02999973  50.27000046
C     8.51000023   7.92000008  49.31000137
C     9.86999989   8.23000050  49.59999847
C    13.90999985   9.30999947  50.52000046
C    14.65000057   9.01000023  49.34999847
C    16.03999901   9.04999924  49.29000092
C     6.12999964   7.46999979  50.12000275
H     5.53076220   8.26184940  49.67057037
H    10.77999973   7.67000008  47.70000076
H    11.61999893   9.70000076  52.18999863
H     9.35000038   9.57999992  52.77000046
H     7.13000011   8.56000042  52.31999969
H     8.28999996   7.36999989  48.40000153
H    16.54000092   8.86999989  48.34000015
H     5.65999985   7.22000027  51.07999802
H     6.24000025   6.51999998  49.56999969
