96

S    17.13999939   9.63000011  58.66000366
C    19.92000008   9.42000008  57.97000122
C    18.59000015   9.13999939  57.76000214
C    18.17000008   8.69999981  56.46999741
C    19.10000038   8.50000000  55.45999908
C    20.48000145   8.75000000  55.65000153
C    21.52000046   8.73999977  54.68000031
C    22.85000038   8.92000008  54.99000168
C    23.19999886   9.40999985  56.26999664
C    22.19000053   9.77000046  57.14000320
C    20.88000107   9.26000023  56.93999863
C    16.73999977   8.51000023  56.33999634
C    16.00000000   9.07999992  57.41000366
C    14.61999989   9.15999985  57.48000336
C    24.54999924  10.00000000  56.58000183
H    25.01840782   9.46061993  57.40326691
H    20.15000153  10.03999901  58.82999802
H    18.79999924   8.19000053  54.45999908
H    21.24000168   8.52999973  53.64999771
H    23.55999947   8.94999981  54.16999817
H    22.34999847  10.40999985  58.01000214
H    14.11000061   9.31999969  58.43000031
H    25.17999840   9.96999931  55.68000031
H    24.51000023  11.06999969  56.81000137
S    13.52000046   7.86000013  53.92000198
C    10.75000000   8.02999973  54.54999924
C    12.07999992   8.15999985  54.89999771
C    12.46999931   8.48999977  56.23000336
C    11.46999931   8.59000015  57.18000031
C    10.10000038   8.32999992  56.90000153
C     9.02999973   8.36999989  57.83000183
C     7.71000004   8.06999969  57.54000092
C     7.36000013   7.75000000  56.19999695
C     8.38000011   7.69999981  55.27999878
C     9.72999954   8.07999992  55.54000092
C    13.90999985   8.69999981  56.37000275
C    14.63999939   8.30000019  55.21999741
C    16.02000046   8.14000034  55.19000244
C     5.93999958   7.35000038  55.86000061
H     5.52026463   7.95470333  55.05609894
H    10.43000031   7.83999968  53.53000259
H    11.69000053   9.00000000  58.15999985
H     9.19999981   8.80000019  58.81000137
H     7.00000000   7.86999989  58.33000183
H     8.19000053   7.35000038  54.27000046
H    16.64999962   7.99000025  54.31999969
H     5.42000008   7.53000021  56.81000137
H     5.86999989   6.28999996  55.61000061
S    13.76000023   6.21000004  50.89000320
C    11.03000069   5.78000021  51.53999710
C    12.36999989   5.47999954  51.70000076
C    12.82999992   4.67999983  52.80000305
C    11.89000034   4.00999975  53.56999969
C    10.50000000   4.21000004  53.41999817
C     9.55000019   3.44000006  54.15000153
C     8.21000004   3.50000000  53.85000229
C     7.78999996   4.44999981  52.88000107
C     8.69000053   5.26000023  52.22000122
C    10.10000038   5.13000011  52.38999939
C    14.25000000   4.73000002  53.09000015
C    14.85999966   5.55999994  52.11000061
C    16.18999863   5.96000004  52.25000000
C     6.30000019   4.63000011  52.77000046
H     5.84281015   4.40854883  51.80561829
H    10.84000015   6.54999971  50.80999756
H    12.18000031   3.42000008  54.43000031
H     9.89000034   2.86999989  55.00999832
H     7.49000025   3.02999997  54.51000214
H     8.27000046   5.84999990  51.40999603
H    16.67000008   6.57000017  51.49000168
H     5.79999971   4.00999975  53.52000427
H     6.05000019   5.68000031  53.00000000
S    17.38000107   4.18000031  55.59000015
C    20.10999870   4.74000025  54.91000366
C    18.75000000   4.84000015  54.68000031
C    18.35000038   5.51999998  53.48999786
C    19.22999954   6.17000008  52.63000107
C    20.61000061   6.01999998  52.88000107
C    21.60000038   6.63999987  52.06999969
C    22.92000008   6.38000011  52.32999802
C    23.38999939   5.69999981  53.48999786
C    22.44999886   5.19999981  54.36999893
C    21.07000160   5.26999998  54.02000046
C    16.90000153   5.49000025  53.34999847
C    16.23999977   4.72000027  54.34000015
C    14.96000099   4.21000004  54.18000031
C    24.86999893   5.73000002  53.80000305
H    25.14105034   5.74426556  54.85566711
H    20.46999931   4.28000021  55.81999969
H    18.98999977   6.77999973  51.77000046
H    21.32999802   7.30000019  51.25000000
H    23.68999863   6.75000000  51.65999985
H    22.63000107   4.57999992  55.25000000
H    14.52999973   3.52999973  54.91000366
H    25.32999992   6.58999968  53.30999756
H    25.23999977   4.85000038  53.26000214
