96

S    16.73999977   9.84000015  58.68999863
C    19.45000076   9.86999989  57.95000076
C    18.13999939   9.59999943  57.63000107
C    17.81999969   9.11999989  56.31999969
C    18.85000038   8.89000034  55.43000031
C    20.20000076   9.17000008  55.76000214
C    21.31999969   9.03999996  54.89999771
C    22.60999870   9.39000034  55.21999741
C    22.89999962   9.81999969  56.53999710
C    21.88999939   9.88000011  57.47000122
C    20.55000114   9.56999969  57.09999847
C    16.39000130   8.90999985  56.19999695
C    15.67999935   9.35999966  57.35000229
C    14.29999924   9.31999969  57.49000168
C    24.28999901  10.31999969  56.88000107
H    24.69721985   9.81990623  57.75873566
H    19.63000107  10.42000008  58.87000275
H    18.55999947   8.53999996  54.43999863
H    21.05999947   8.71999931  53.88999939
H    23.31999969   9.38000011  54.38999939
H    21.96000099  10.29000092  58.47000122
H    13.80000019   9.64999962  58.40000153
H    24.99000168  10.15999985  56.04999924
H    24.40999985  11.39000034  57.06999969
S    13.17000008   8.05999947  53.88000107
C    10.43000031   8.03999996  54.68000031
C    11.76000023   8.32999992  54.92000198
C    12.15000057   8.90999985  56.17000198
C    11.19999981   9.27999973  57.09999847
C     9.84000015   8.96000004  56.88000107
C     8.82000065   9.09000015  57.87000275
C     7.57999992   8.52999973  57.74000168
C     7.16000032   8.02999973  56.46999741
C     8.06999969   7.96999979  55.44000244
C     9.44000053   8.31999969  55.65000153
C    13.59000015   8.89999962  56.36000061
C    14.27999973   8.53999996  55.18000031
C    15.67000008   8.47000027  55.07999802
C     5.77000046   7.50000000  56.25000000
H     5.30084419   8.13264847  55.49650955
H    10.15999985   7.50999975  53.76999664
H    11.50000000   9.51000023  58.11999893
H     9.15000057   9.31999969  58.88000107
H     6.84000015   8.61999989  58.53000259
H     7.77999973   7.44000006  54.54000092
H    16.11999893   8.01000023  54.20999908
H     5.15999985   7.44000006  57.15000153
H     5.92000008   6.48000002  55.86000061
S    16.90000153  10.11999989  52.55000305
C    19.61000061  10.06999969  51.86000061
C    18.30999947   9.75000000  51.53999710
C    17.93000031   9.26000023  50.25000000
C    18.90999985   9.13999939  49.27000046
C    20.26000023   9.44000053  49.59000015
C    21.24000168   9.15999985  48.60000229
C    22.52000046   9.55999947  48.90999603
C    22.93999863  10.21000004  50.08999634
C    21.97000122  10.38000011  51.05999756
C    20.62999916   9.94999981  50.89000320
C    16.48999977   9.23999977  50.04000092
C    15.81999969   9.65999985  51.22000122
C    14.44000053   9.75000000  51.35000229
C    24.34999847  10.52999973  50.54999924
H    24.78537560   9.82340622  51.25659180
H    19.72999954  10.60999966  52.80000305
H    18.65999985   8.82999992  48.26000214
H    20.97999954   8.60999966  47.70000076
H    23.16999817   9.13000011  48.15000153
H    22.20999908  10.80000019  52.02999878
H    13.93000031  10.18000031  52.19999695
H    24.93000031  10.72000027  49.64000320
H    24.23999977  11.49000072  51.06999969
S    13.17000008   8.64999962  47.76000214
C    10.52999973   8.57999992  48.61000061
C    11.84000015   8.88000011  48.90999603
C    12.25000000   9.44000053  50.15999603
C    11.31000042   9.53999996  51.18000031
C     9.94999981   9.32999992  50.84999847
C     8.94999981   9.35000038  51.86999893
C     7.64999962   8.98999977  51.59000015
C     7.23000002   8.69999981  50.27000046
C     8.18000031   8.53999996  49.29000092
C     9.52000046   8.92000008  49.54000092
C    13.69999981   9.36999989  50.22999573
C    14.35999966   9.00000000  49.02999878
C    15.73999977   8.84000015  48.93000031
C     5.80999947   8.23999977  49.99000168
H     5.34137249   8.82933426  49.20185471
H    10.26000023   7.99000025  47.72999573
H    11.67000008   9.68000031  52.19999695
H     9.26999950   9.42000008  52.90000153
H     6.98000002   8.80999947  52.43000031
H     7.96999979   7.94000053  48.40999985
H    16.28000069   8.36000061  48.11999893
H     5.19000006   8.19999981  50.89000320
H     5.75999975   7.22000027  49.59999847
