96

S    17.30999947   9.57999992  58.95999908
C    20.00999832   9.59000015  58.11000061
C    18.72999954   9.10000038  58.01000214
C    18.37000084   8.25000000  56.90999985
C    19.29000092   8.09000015  55.89000320
C    20.62000084   8.53999996  55.98999786
C    21.60000038   8.34999943  54.97000122
C    22.90999985   8.69000053  55.20000076
C    23.31000137   9.26999950  56.44000244
C    22.36000061   9.71000004  57.32999802
C    21.00000000   9.32999992  57.12999725
C    16.92000008   8.18000031  56.77999878
C    16.20000076   8.75000000  57.85999680
C    14.81999969   8.93000031  57.83000183
C    24.77999878   9.55000019  56.65000153
H    25.10057449   8.94446945  57.49774170
H    20.36999893   9.96000004  59.06999969
H    19.06999969   7.57000017  54.95999908
H    21.37000084   7.72000027  54.12000275
H    23.68999863   8.39999962  54.50000000
H    22.56000137  10.36000061  58.16999817
H    14.30999947   9.55000019  58.55999756
H    25.34000015   9.39999962  55.70999908
H    24.96000099  10.62000084  56.79999924
S    13.67000008   7.46000004  54.36999893
C    10.95000076   7.82999992  54.86999893
C    12.25000000   8.10999966  55.20999908
C    12.63000011   8.59000015  56.51000214
C    11.63000011   9.00000000  57.36000061
C    10.31000042   8.53999996  57.15000153
C     9.34000015   8.60000038  58.18999863
C     8.06999969   8.10000038  57.98999786
C     7.73999977   7.42999983  56.79000092
C     8.64999962   7.42000008  55.75000000
C     9.96999931   7.92999983  55.89000320
C    14.07999992   8.53999996  56.70999908
C    14.80999947   8.02999973  55.61000061
C    16.17000008   7.76999998  55.66999817
C     6.35999966   6.84000015  56.62000275
H     5.69039917   7.50247765  56.07149506
H    10.62999916   7.17999983  54.06000137
H    11.92999935   9.35000038  58.34999847
H     9.72999954   8.89999962  59.16999817
H     7.36000013   8.05999947  58.81000137
H     8.38999939   7.02000046  54.77000427
H    16.63999939   7.13999987  54.91000366
H     5.96000004   6.47000027  57.56999969
H     6.50000000   5.93999958  56.00999832
S    13.53000069   5.82000017  51.12999725
C    10.86999989   5.18000031  51.86999893
C    12.22000027   5.07999992  52.06999969
C    12.68000031   4.32000017  53.20000076
C    11.82999992   3.78999996  54.15000153
C    10.44999981   4.00999975  53.95999908
C     9.47000027   3.44000006  54.81999969
C     8.13000011   3.47000003  54.52999878
C     7.62000036   4.28000021  53.47000122
C     8.52000046   4.86000013  52.61000061
C     9.92000008   4.71000004  52.81999969
C    14.14000034   4.33999968  53.25000000
C    14.72000027   5.21000004  52.29999924
C    16.05999947   5.58000040  52.23999786
C     6.14000034   4.35999966  53.20999908
H     5.79887581   4.20365143  52.18662643
H    10.54999924   5.78000021  51.02000427
H    12.11999989   3.10999990  54.93999863
H     9.80000019   2.89999986  55.70999908
H     7.44999981   2.84000015  55.08999634
H     8.18000031   5.42999983  51.75000000
H    16.52000046   6.19999981  51.46999741
H     5.65000010   3.55999994  53.79000092
H     5.82999992   5.33999968  53.57999802
S    17.48999977   3.65000010  55.41999817
C    20.19000053   4.33999968  54.86000061
C    18.84000015   4.42999983  54.58000183
C    18.31999969   5.03999996  53.39000320
C    19.20999908   5.68000031  52.55000305
C    20.61000061   5.55000019  52.77000046
C    21.61999893   6.14000034  51.95999908
C    22.96999931   5.98000002  52.15000153
C    23.43000031   5.19999981  53.25000000
C    22.50999832   4.63000011  54.09999847
C    21.11000061   4.82999992  53.90999603
C    16.87999916   4.98000002  53.20999908
C    16.34000015   4.05000019  54.13000107
C    14.98000050   3.75999975  54.20999908
C    24.90999985   4.92999983  53.43000031
H    25.24324036   5.07180405  54.45807648
H    20.55999947   3.75999975  55.70000076
H    18.78000069   6.12999964  51.65999985
H    21.25000000   6.80999994  51.18999863
H    23.64999962   6.37000036  51.40999603
H    22.79000092   4.17000008  55.04000092
H    14.55000019   3.30999994  55.10000229
H    25.43000031   5.69999981  52.85999680
H    25.13999939   3.94000006  53.04000092
