96

S    16.81999969   9.85000038  58.72000122
C    19.50000000   9.85000038  58.09000015
C    18.22999954   9.51000023  57.69000244
C    17.89999962   9.06999969  56.36000061
C    18.97999954   8.82000065  55.54000092
C    20.29999924   9.22000027  55.87999725
C    21.35999870   9.01000023  54.95999908
C    22.65000153   9.39999962  55.25000000
C    22.92000008   9.86999989  56.56000137
C    21.91999817  10.15999985  57.45999908
C    20.59000015   9.73999977  57.18999863
C    16.46000099   8.85999966  56.25000000
C    15.77000046   9.28999996  57.39999771
C    14.37999916   9.35000038  57.48000336
C    24.33000183  10.25000000  56.93000031
H    24.69404221   9.57902050  57.70804977
H    19.63999939  10.25000000  59.09000015
H    18.73999977   8.19000053  54.68999863
H    21.12999916   8.50000000  54.02999878
H    23.38000107   9.11999989  54.48999786
H    22.19000053  10.57000065  58.43000031
H    13.99000072   9.46000004  58.48999786
H    25.06000137  10.25000000  56.11000061
H    24.30999947  11.28999901  57.27000427
S    13.12999916   8.15999985  53.94000244
C    10.44000053   8.11999989  54.61999893
C    11.72000027   8.46000004  54.97000122
C    12.13999939   9.06999969  56.19999695
C    11.18000031   9.18000031  57.18999863
C     9.85000038   8.76000023  56.91999817
C     8.86999989   8.69000053  57.94000244
C     7.59000015   8.27000046  57.63999939
C     7.17000008   7.78999996  56.37000275
C     8.13000011   7.78999996  55.38999939
C     9.44000053   8.30000019  55.61999893
C    13.59000015   9.13999939  56.33999634
C    14.27999973   8.63000011  55.21999741
C    15.65999985   8.47999954  55.15999603
C     5.72000027   7.40999985  56.14999771
H     5.30613375   7.93090057  55.28658676
H    10.24000072   7.57999992  53.69999695
H    11.54999924   9.52999973  58.15000153
H     9.15000057   9.17000008  58.88000107
H     6.84999990   8.52000046  58.39000320
H     7.88999987   7.53000021  54.36000061
H    16.22999954   8.27999973  54.26000214
H     5.01999950   7.73999977  56.91999817
H     5.66999960   6.32000017  56.00000000
S    17.19000053  10.06000042  52.71999741
C    19.84000015  10.34000015  51.93000031
C    18.59000015   9.82999992  51.65000153
C    18.22999954   9.46000004  50.31999969
C    19.27000046   9.40999985  49.40000153
C    20.59999847   9.80000019  49.65999985
C    21.64999962   9.65999985  48.69999695
C    22.95000076   9.92000008  49.06000137
C    23.25000000  10.38000011  50.35999680
C    22.27000046  10.48999977  51.31999969
C    20.89999962  10.24000072  50.98999786
C    16.77999878   9.36999989  50.22999573
C    16.09000015   9.92999935  51.32999802
C    14.70999908   9.96999931  51.42000198
C    24.67000008  10.69000053  50.79000092
H    24.96883965   9.99270821  51.57267380
H    20.17000008  10.67999935  52.90999985
H    19.09000015   9.06000042  48.37999725
H    21.56999969   9.22999954  47.70000076
H    23.85999870   9.75000000  48.47999954
H    22.55000114  10.80999947  52.31999969
H    14.21000004  10.14999962  52.36999893
H    25.25000000  10.67000008  49.86000061
H    24.86000061  11.68000031  51.20999908
S    13.61999989   8.52999973  47.77000046
C    10.93999958   8.67000008  48.40999985
C    12.23000050   8.97999954  48.76999664
C    12.57999992   9.52999973  50.04000092
C    11.56000042   9.81000042  50.93999863
C    10.22999954   9.46000004  50.61999893
C     9.26999950   9.44999981  51.65999985
C     8.00000000   8.97000027  51.42000198
C     7.63999987   8.30000019  50.21999741
C     8.60999966   8.23000050  49.25000000
C     9.90999985   8.78999996  49.38000107
C    14.01000023   9.68999958  50.24000168
C    14.63999939   9.11999989  49.10999680
C    16.02000046   9.00000000  49.10999680
C     6.25999975   7.73999977  49.97000122
H     5.72889805   8.39148521  49.27602768
H    10.75000000   8.14000034  47.48000336
H    11.77000046  10.18000031  51.93999863
H     9.52999973   9.94000053  52.60000229
H     7.27999973   8.94999981  52.22000122
H     8.45000076   7.55000019  48.41999817
H    16.59000015   8.80000019  48.20999908
H     5.69000006   7.77999973  50.90000153
H     6.38000011   6.69000053  49.68000031
