96

S    17.43999863   9.30000019  58.63999939
C    20.07999802   9.35000038  57.81999969
C    18.78999901   9.00000000  57.52999878
C    18.35000038   8.63000011  56.20999908
C    19.34000015   8.48999977  55.25000000
C    20.66999817   8.89999962  55.52000046
C    21.68999863   8.73999977  54.54000092
C    22.98999977   8.96000004  54.92000198
C    23.35000038   9.57999992  56.14999771
C    22.37999916   9.88000011  57.06999969
C    21.04999924   9.44999981  56.79000092
C    16.90000153   8.67999935  56.09000397
C    16.28000069   8.96000004  57.34000397
C    14.88999939   9.02999973  57.37999725
C    24.80999947   9.77999973  56.49000168
H    25.13084793   9.10265255  57.28142929
H    20.23999977   9.84000015  58.77999878
H    19.15999985   8.31999969  54.20000076
H    21.50000000   8.31999969  53.54999924
H    23.81999969   8.71999931  54.27000046
H    22.75000000  10.26000023  58.02000046
H    14.32999992   9.21000004  58.29000092
H    25.50000000   9.71000004  55.63000107
H    24.82999992  10.77999973  56.95000076
S    13.71999931   7.69000006  53.79000092
C    11.05999947   7.30000019  54.72000122
C    12.35000038   7.73000002  54.92000198
C    12.69999981   8.51000023  56.06999969
C    11.72999954   8.76999950  57.02000046
C    10.38000011   8.43999958  56.77000046
C     9.35999966   8.64000034  57.75000000
C     8.07999992   8.26000023  57.45999908
C     7.65999985   7.76999998  56.18999863
C     8.64000034   7.53999996  55.25000000
C    10.01000023   7.76000023  55.56000137
C    14.14000034   8.69000053  56.25000000
C    14.80000019   8.30000019  55.06000137
C    16.18000031   8.36000061  54.93999863
C     6.24000025   7.34000015  55.90000153
H     5.76987505   7.95258760  55.13070297
H    10.72000027   6.71999979  53.87000275
H    12.02000046   9.32999992  57.90999985
H     9.67000008   8.85000038  58.76999664
H     7.46999979   8.27000046  58.36000061
H     8.38999939   7.03999996  54.31999969
H    16.68000031   7.94000053  54.06999969
H     5.72000027   7.42000008  56.86000061
H     6.23000050   6.30000019  55.54000092
S    17.76000023  10.06999969  52.61000061
C    20.45999908  10.05000019  52.01000214
C    19.19999886   9.63999939  51.65999985
C    18.89000130   8.98999977  50.41999817
C    19.93000031   8.63000011  49.58000183
C    21.24000168   9.06000042  49.86999893
C    22.29000092   9.02999973  48.90999603
C    23.59999847   9.35000038  49.18000031
C    23.85000038   9.82999992  50.50000000
C    22.85000038  10.11999989  51.39999771
C    21.51000023   9.70000076  51.12999725
C    17.43999863   8.98999977  50.20999908
C    16.69999886   9.55000019  51.29000092
C    15.31999969   9.47000027  51.38999939
C    25.28000069  10.19999981  50.79000092
H    25.74611282   9.37371063  51.32673645
H    20.62000084  10.62000084  52.91999817
H    19.68000031   8.28999996  48.57999802
H    21.94999886   8.42000008  48.08000183
H    24.44000053   9.30999947  48.48999786
H    23.16999817  10.67000008  52.28000259
H    14.86999989   9.72000027  52.34000397
H    25.85000038  10.59999943  49.94999695
H    25.17999840  11.02000046  51.52000046
S    14.21000004   7.90999985  47.90999985
C    11.47999954   7.90000010  48.64999771
C    12.79000092   8.19999981  48.95000076
C    13.19000053   8.80999947  50.18000031
C    12.18999958   9.11000061  51.09000397
C    10.81999969   8.88000011  50.84000015
C     9.86999989   8.93000031  51.90000153
C     8.57999992   8.48999977  51.70000076
C     8.22000027   7.94000053  50.44000244
C     9.13999939   7.76999998  49.43999863
C    10.48999977   8.19999981  49.61999893
C    14.63999939   9.00000000  50.26000214
C    15.34000015   8.52000046  49.13000107
C    16.72999954   8.47999954  49.12000275
C     6.76000023   7.57999992  50.25000000
H     6.20821285   8.11763859  49.47891235
H    11.26000023   7.44000006  47.69000244
H    12.42000008   9.42000008  52.09999847
H    10.29000092   9.26000023  52.84999847
H     7.85000038   8.61999989  52.49000168
H     8.88000011   7.23000002  48.53000259
H    17.09000015   7.96999979  48.22999954
H     6.26999950   7.76000023  51.22000122
H     6.80000019   6.51999998  49.97000122
