96

S    16.54999924   9.35999966  58.80000305
C    19.22999954   9.64999962  58.06000137
C    17.98999977   9.11999989  57.78999710
C    17.73999977   8.60999966  56.46999741
C    18.75000000   8.47999954  55.52999878
C    20.03999901   9.01000023  55.79000092
C    21.12999916   8.93999958  54.87999725
C    22.36000061   9.46000004  55.22999573
C    22.55000114  10.14000034  56.45999908
C    21.48999977  10.26000023  57.31999969
C    20.22000122   9.67000008  57.04999924
C    16.29999924   8.43999958  56.30000305
C    15.55999947   8.97000027  57.38999939
C    14.19000053   9.19000053  57.31999969
C    23.95999908  10.57999992  56.79999924
H    24.34598541   9.95813465  57.60771179
H    19.36000061  10.24000072  58.95999908
H    18.51000023   7.96999979  54.61000061
H    20.79999924   8.53999996  53.92000198
H    23.19999886   9.32999992  54.54999924
H    21.65999985  10.80000019  58.25000000
H    13.61999989   9.55999947  58.16999817
H    24.61999893  10.47999954  55.93000031
H    23.98999977  11.61999893  57.12999725
S    13.15999985   7.88999987  53.73000336
C    10.42000008   7.85000038  54.36999893
C    11.71000004   8.18000031  54.71000290
C    12.03999996   8.67999935  56.00999832
C    11.05000019   8.85999966  56.95999908
C     9.72000027   8.48999977  56.65999985
C     8.73000050   8.52999973  57.68000031
C     7.44000006   8.17000008  57.36000061
C     7.09999990   7.57999992  56.11000061
C     8.06999969   7.55999994  55.13000107
C     9.39000034   8.05999947  55.31999969
C    13.48000050   8.73999977  56.19999695
C    14.22999954   8.26000023  55.10000229
C    15.59999943   8.01000023  55.17000198
C     5.71000004   7.03000021  55.91999817
H     5.25436306   7.47851753  55.03720474
H    10.19999981   7.42999983  53.39000320
H    11.39999962   8.97000027  57.97999954
H     9.04999924   8.88000011  58.64999771
H     6.67000008   8.26000023  58.13000107
H     7.75000000   7.00999975  54.25000000
H    16.10000038   7.73999977  54.25000000
H     5.12000036   7.13999987  56.84000015
H     5.75000000   5.93999958  55.79999924
S    17.30999947  10.25000000  52.54000092
C    19.92000008  10.59999943  51.83000183
C    18.68999863  10.11000061  51.44000244
C    18.37000084   9.55999947  50.14999771
C    19.44000053   9.30000019  49.33000183
C    20.72999954   9.78999996  49.64000320
C    21.88999939   9.51000023  48.85000229
C    23.15999985   9.76000023  49.29999924
C    23.38000107  10.47000027  50.51000214
C    22.29000092  10.81999969  51.26999664
C    20.96999931  10.47000027  50.89000320
C    16.93000031   9.32999992  50.05000305
C    16.23999977   9.77000046  51.20999908
C    14.85999966   9.75000000  51.30000305
C    24.70999908  11.00000000  50.97999954
H    25.10915947  10.51530743  51.87097931
H    20.13000107  10.90000057  52.85999680
H    19.26000023   8.78999996  48.39000320
H    21.63999939   8.89000034  47.98999786
H    24.02000046   9.44999981  48.70999908
H    22.47999954  11.46000004  52.12999725
H    14.39000034  10.05000019  52.23999786
H    25.32999992  10.93999958  50.06999969
H    24.61000061  12.09000015  51.04999924
S    13.73000050   8.43000031  47.77999878
C    10.98999977   8.27000046  48.46000290
C    12.28000069   8.63000011  48.79000092
C    12.64999962   9.04999924  50.11000061
C    11.65999985   9.21000004  51.05999756
C    10.29999924   9.01000023  50.72000122
C     9.15999985   9.30999947  51.51000214
C     7.86999989   8.89000034  51.26999664
C     7.59999990   8.36999989  49.98000336
C     8.61999989   8.23000050  49.06000137
C     9.98000050   8.43000031  49.43999863
C    14.09000015   9.22999954  50.25000000
C    14.82999992   8.93999958  49.08000183
C    16.21000099   8.88000011  48.94000244
C     6.19000006   7.90000010  49.72000122
H     5.72120428   8.52506065  48.95998001
H    10.72999954   7.97999954  47.44999695
H    11.80999947   9.71000004  52.01000214
H     9.39000034   9.77999973  52.45999908
H     7.04999971   8.85000038  51.98999786
H     8.48999977   7.96999979  48.02000046
H    16.69000053   8.67999935  47.98999786
H     5.52999973   7.90999985  50.59999847
H     6.23000050   6.85999966  49.38000107
