96

S    16.61999893   9.52999973  58.69999695
C    19.34999847   9.46000004  58.06000137
C    18.05999947   9.07999992  57.77000046
C    17.71999931   8.60999966  56.45999908
C    18.72999954   8.30000019  55.56999969
C    20.07999802   8.64999962  55.81999969
C    21.15999985   8.30999947  54.97000122
C    22.46000099   8.64000034  55.31000137
C    22.75000000   9.23999977  56.56000137
C    21.73000145   9.50000000  57.44999695
C    20.38000107   9.15999985  57.14000320
C    16.28000069   8.57999992  56.20999908
C    15.57999992   9.11999989  57.31999969
C    14.22999954   9.44999981  57.32999802
C    24.11999893   9.85999966  56.75000000
H    24.80637360   9.15217590  57.21473312
H    19.47000122  10.06000042  58.95999908
H    18.56999969   7.68000031  54.68999863
H    20.89999962   7.73000002  54.09000015
H    23.31000137   8.59000015  54.65000153
H    21.91999817  10.24000072  58.22000122
H    13.68999958   9.76000023  58.22000122
H    24.63000107  10.11000061  55.80999756
H    23.97000122  10.72999954  57.39999771
S    13.02000046   7.83999968  53.95000076
C    10.39999962   7.55000019  54.87999725
C    11.68000031   7.97999954  55.10000229
C    12.05999947   8.67999935  56.30000305
C    11.07999992   9.00000000  57.22999954
C     9.76000023   8.52000046  57.05999756
C     8.64999962   8.82999992  57.90000153
C     7.36000013   8.43000031  57.67000198
C     7.09999990   7.72000027  56.46999741
C     8.09000015   7.36999989  55.59000015
C     9.43000031   7.75000000  55.89000320
C    13.48999977   8.96000004  56.25000000
C    14.19000053   8.47999954  55.12000275
C    15.55999947   8.21000004  55.06999969
C     5.69000006   7.26000023  56.18000031
H     5.27014875   7.90045071  55.40433884
H    10.18000031   7.09000015  53.90999603
H    11.28999901   9.47000027  58.18000031
H     8.82999992   9.42000008  58.80000305
H     6.56000042   8.88000011  58.25000000
H     7.90000010   6.90000010  54.62999725
H    16.03000069   7.67000008  54.26000214
H     5.12000036   7.21000004  57.11999893
H     5.78999996   6.25000000  55.75000000
S    14.39000034   6.15000010  50.97999954
C    11.69999981   5.44000053  51.44000244
C    13.02999973   5.33999968  51.77999878
C    13.50000000   4.67000008  52.95999908
C    12.53000069   4.07999992  53.75000000
C    11.14999962   4.11999989  53.41999817
C    10.14999962   3.67000008  54.33000183
C     8.80999947   3.91000009  54.10999680
C     8.39999962   4.65999985  52.97999954
C     9.30999947   5.03999996  52.02000046
C    10.70000076   4.86000013  52.27000427
C    14.91000080   4.81999969  53.27000046
C    15.48999977   5.64000034  52.27000427
C    16.86000061   5.89999962  52.28000259
C     6.90999985   4.88999987  52.83000183
H     6.47633219   4.31414557  52.01242828
H    11.30000019   5.96000004  50.56999969
H    12.84999943   3.60000014  54.66999817
H    10.47000027   3.28999996  55.28999710
H     8.13000011   3.50000000  54.85000229
H     9.04999924   5.75000000  51.24000168
H    17.35999870   6.38000011  51.45000076
H     6.46000004   4.69999981  53.80000305
H     6.69000053   5.96000004  52.70000076
S    18.31999969   4.01999998  55.44000244
C    20.95999908   4.59000015  54.65000153
C    19.61000061   4.81999969  54.52000046
C    19.13999939   5.50000000  53.34999847
C    19.96000099   5.89999962  52.30999756
C    21.35000038   5.65000010  52.41000366
C    22.27999878   6.05999994  51.40999603
C    23.61999893   5.86000013  51.59999847
C    24.09000015   5.19999981  52.77000046
C    23.21000099   4.69999981  53.69999695
C    21.81999969   4.97000027  53.59000397
C    17.68000031   5.44000053  53.31999969
C    17.07999992   4.69999981  54.36999893
C    15.72999954   4.39000034  54.31999969
C    25.55000114   5.17000008  53.13999939
H    25.64275742   5.11291885  54.22454453
H    21.35000038   3.96000004  55.43000031
H    19.47999954   6.32999992  51.43000031
H    21.90999985   6.75000000  50.65999985
H    24.37000084   6.17999983  50.87999725
H    23.64999962   4.23999977  54.59000015
H    15.27999973   3.86999989  55.15999603
H    25.86999893   6.17000008  52.81999969
H    26.04000092   4.30999994  52.65999603
