96

S    16.47999954   9.53999996  58.63999939
C    19.18000031   9.59999943  57.90000153
C    17.89999962   9.17000008  57.63999939
C    17.56000137   8.61999989  56.36000061
C    18.56999969   8.50000000  55.41999817
C    19.93999863   8.69999981  55.72999954
C    20.98999977   8.40999985  54.80999756
C    22.25000000   8.80000019  55.18000031
C    22.50000000   9.53999996  56.36000061
C    21.54999924   9.73999977  57.34000397
C    20.23999977   9.27999973  57.01000214
C    16.11999893   8.53999996  56.18000031
C    15.43000031   9.09000015  57.28000259
C    14.04000092   9.13000011  57.31999969
C    23.90000153  10.05000019  56.60999680
H    24.42978668   9.34838963  57.25433350
H    19.38999939  10.22999954  58.75000000
H    18.26000023   8.30000019  54.40000153
H    20.88000107   8.10999966  53.76999664
H    23.01000214   8.89000034  54.40000153
H    21.57999992  10.38000011  58.20999908
H    13.50999928   9.53999996  58.18000031
H    24.34000015  10.14999962  55.61000061
H    23.81999969  11.06999969  57.02999878
S    12.82999992   8.10000038  53.68000031
C    10.14000034   7.86000013  54.52000046
C    11.44000053   8.23000050  54.78000259
C    11.85999966   8.64999962  56.07999802
C    10.95999908   8.63000011  57.14000320
C     9.59999943   8.28999996  56.91999817
C     8.64999962   8.42000008  57.97000122
C     7.36000013   8.01000023  57.72999573
C     6.97000027   7.49000025  56.46999741
C     7.88999987   7.40999985  55.45000076
C     9.22999954   7.86999989  55.59999847
C    13.30999947   8.76000023  56.18000031
C    13.99000072   8.43999958  54.98000336
C    15.34999943   8.18000031  55.06999969
C     5.51999998   7.31999969  56.04999924
H     5.27862215   7.85955095  55.13418198
H     9.86999989   7.50000000  53.53000259
H    11.32999992   8.96000004  58.09999847
H     9.11999989   8.89000034  58.82999802
H     6.57000017   8.38000011  58.37999725
H     7.46000004   7.11999989  54.48999786
H    15.85000038   7.81000042  54.18000031
H     4.92999983   7.68000031  56.90000153
H     5.40999985   6.23000050  55.97999954
S    13.56999969   5.88000011  50.87999725
C    10.88999939   5.21000004  51.50000000
C    12.23000050   5.15999985  51.79999924
C    12.69000053   4.56999969  53.02999878
C    11.73999977   4.15999985  53.94000244
C    10.34000015   4.25000000  53.75000000
C     9.35999966   3.68000007  54.61000061
C     8.03999996   3.86000013  54.26000214
C     7.64999962   4.44999981  53.02999878
C     8.59000015   4.79999971  52.09000015
C     9.96999931   4.63999987  52.41000366
C    14.13000011   4.67999983  53.15999985
C    14.75000000   5.44000053  52.12999725
C    16.04999924   5.91000032  52.22999954
C     6.17999983   4.69999981  52.77999878
H     5.91719007   4.43008757  51.75717163
H    10.44000053   5.77000046  50.68000031
H    12.00000000   3.63000011  54.85000229
H     9.55000019   3.12999988  55.52999878
H     7.27999973   3.55999994  54.98000336
H     8.39999962   5.25000000  51.12999725
H    16.55999947   6.54999971  51.52000046
H     5.63000011   4.07000017  53.48999786
H     5.89999962   5.73999977  52.95999908
S    17.42000008   4.03999996  55.47999954
C    20.05000114   4.46999979  54.71000290
C    18.72999954   4.79999971  54.55999756
C    18.26000023   5.40000010  53.34999847
C    19.17000008   5.98999977  52.49000168
C    20.56999969   5.84000015  52.69000244
C    21.54999924   6.23000050  51.72999954
C    22.86999893   5.91000032  51.97999954
C    23.31999969   5.46000004  53.23999786
C    22.37999916   4.97000027  54.12000275
C    20.98999977   5.07999992  53.82999802
C    16.81999969   5.26999998  53.20999908
C    16.23999977   4.44999981  54.22000122
C    14.88999939   4.15000010  54.20999908
C    24.77000046   5.07000017  53.47000122
H    25.09704208   5.54634380  54.39425278
H    20.31999969   3.96000004  55.63000107
H    18.88000107   6.56000042  51.60999680
H    21.28999901   6.84999990  50.87999725
H    23.59999847   6.19999981  51.23000336
H    22.72000122   4.42999983  55.00000000
H    14.48999977   3.70000005  55.12000275
H    25.43000031   5.32999992  52.62000275
H    24.67000008   3.98999977  53.59000397
