96

S    16.69999886   9.01000023  58.75000000
C    19.44000053   9.06000042  58.20000076
C    18.15999985   8.89999962  57.74000168
C    17.80999947   8.67000008  56.37000275
C    18.81999969   8.56000042  55.43000031
C    20.17000008   8.78000069  55.81999969
C    21.18999863   8.86999989  54.84000397
C    22.49000168   9.15999985  55.15999603
C    22.80999947   9.28999996  56.53999710
C    21.84999847   9.13000011  57.50000000
C    20.45999908   8.94999981  57.22000122
C    16.36999893   8.63000011  56.18999863
C    15.60999966   8.90999985  57.36000061
C    14.22999954   9.06999969  57.43000031
C    24.20999908   9.73999977  56.90000153
H    24.66601562   9.09160233  57.64815140
H    19.64999962   9.39000034  59.22000122
H    18.57999992   8.30000019  54.40999985
H    20.92000008   8.56999969  53.82999802
H    23.22000122   9.39000034  54.38999939
H    22.03000069   9.52000046  58.50000000
H    13.71999931   9.30000019  58.34999847
H    24.92000198   9.70000076  56.05999756
H    24.18000031  10.77000046  57.27000427
S    13.12999916   7.82000017  53.80000305
C    10.43000031   7.82000017  54.45999908
C    11.72000027   8.10999966  54.84000397
C    12.07999992   8.64999962  56.11000061
C    11.06999969   8.82999992  57.04000092
C     9.72999954   8.47000027  56.75000000
C     8.75000000   8.57999992  57.77000046
C     7.46000004   8.22000027  57.44999695
C     7.11000013   7.94000053  56.10000229
C     8.03999996   7.79999971  55.10000229
C     9.42000008   7.95000029  55.44000244
C    13.52000046   8.80999947  56.25000000
C    14.22000027   8.32999992  55.11000061
C    15.60999966   8.27000046  55.06999969
C     5.65999985   7.63000011  55.81999969
H     5.21141529   8.29219627  55.07948303
H    10.15999985   7.44000006  53.47999954
H    11.49000072   9.17000008  57.97999954
H     8.96000004   9.07999992  58.70999908
H     6.67999983   8.05000019  58.18999863
H     7.77999973   7.48000050  54.09999847
H    16.21000099   7.96000004  54.22000122
H     5.09999990   7.55999994  56.76000214
H     5.53999996   6.61999989  55.40000153
S    13.09999943   5.79999971  50.68999863
C    10.43000031   5.26999998  51.29000092
C    11.75000000   5.15999985  51.65000153
C    12.20000076   4.56999969  52.88000107
C    11.23000050   4.18000031  53.77999878
C     9.86999989   4.33999968  53.46000290
C     8.84000015   4.21999979  54.43999863
C     7.50000000   4.40000010  54.20000076
C     7.11999989   4.94000006  52.94000244
C     8.05000019   5.23999977  51.97999954
C     9.42000008   4.88999987  52.19999695
C    13.64999962   4.65999985  53.02000046
C    14.25000000   5.42999983  51.98999786
C    15.57999992   5.82999992  52.06999969
C     5.65000010   5.25000000  52.72999573
H     5.25790930   4.80087757  51.81749725
H    10.24000072   5.84000015  50.38999939
H    11.51000023   3.81000018  54.77000427
H     9.06999969   3.88999987  55.45000076
H     6.75000000   4.11999989  54.93000031
H     7.92999983   5.89999962  51.12999725
H    16.14999962   6.23000050  51.24000168
H     4.99000025   4.98000002  53.56999969
H     5.63000011   6.34000015  52.61000061
S    16.94000053   4.19999981  55.47999954
C    19.57999992   5.00000000  54.97000122
C    18.23999977   5.07999992  54.65000153
C    17.77000046   5.72000027  53.46000290
C    18.70000076   6.28999996  52.61000061
C    20.07999802   6.21999979  52.90000153
C    21.09000015   6.58999968  51.97000122
C    22.43000031   6.38999987  52.19999695
C    22.86000061   5.73000002  53.37999725
C    21.91999817   5.42999983  54.34000015
C    20.52999878   5.59999990  54.12000275
C    16.36000061   5.46999979  53.18000031
C    15.80999947   4.61999989  54.16999817
C    14.48999977   4.21999979  54.06000137
C    24.33000183   5.40999985  53.56999969
H    24.74126625   5.94180870  54.42798615
H    19.89999962   4.41000032  55.83000183
H    18.38000107   6.51000023  51.59000015
H    20.82999992   6.98000002  50.97999954
H    23.09000015   6.61999989  51.37000275
H    22.30999947   5.09999990  55.30000305
H    14.04000092   3.77999997  54.93999863
H    24.90999985   5.75999975  52.70999908
H    24.36000061   4.34999990  53.82999802
