96

S    16.97999954   9.19999981  58.68000031
C    19.68000031   9.23999977  57.97999954
C    18.37000084   9.09000015  57.58999634
C    18.01000023   8.82000065  56.23000336
C    18.98999977   8.76000023  55.26000214
C    20.32999992   9.07999992  55.59999847
C    21.38000107   9.15999985  54.64000320
C    22.67999840   9.44999981  54.99000168
C    22.95000076   9.86999989  56.31999969
C    21.97999954   9.80000019  57.29000092
C    20.65999985   9.36999989  56.97000122
C    16.56999969   8.61999989  56.07999802
C    15.90000057   8.85000038  57.30999756
C    14.52999973   8.78999996  57.50999832
C    24.34999847  10.34999943  56.65999985
H    24.86860466   9.61116409  57.27095795
H    19.88000107   9.51000023  59.02000046
H    18.73999977   8.53999996  54.22999954
H    21.24000168   8.88000011  53.60000229
H    23.45000076   9.39000034  54.22999954
H    22.20000076  10.01999950  58.33000183
H    14.04999924   8.86999989  58.48999786
H    24.84000015  10.67000008  55.73999786
H    24.28999901  11.31000042  57.18000031
S    13.22000027   7.83999968  53.89999771
C    10.62000084   7.31999969  54.86999893
C    11.85999966   7.86999989  55.05000305
C    12.30000019   8.32999992  56.32999802
C    11.39000034   8.34999943  57.36999893
C    10.06999969   7.86000013  57.18999863
C     9.06999969   8.00000000  58.18999863
C     7.77999973   7.59000015  57.95000076
C     7.40000010   7.03000021  56.70000076
C     8.36000061   6.80000019  55.73999786
C     9.68999958   7.26999998  55.93999863
C    13.73000050   8.60000038  56.38000107
C    14.37999916   8.34999943  55.13999939
C    15.76000023   8.36999989  54.97000122
C     5.93999958   6.76999998  56.39999771
H     5.63348293   7.21195507  55.45193481
H    10.31000042   7.00999975  53.87000275
H    11.72000027   8.69999981  58.34000015
H     9.35000038   8.34000015  59.19000244
H     6.94999981   7.73000002  58.62999725
H     8.09000015   6.48000002  54.72999954
H    16.10999870   8.25000000  53.95000076
H     5.38999987   7.31999969  57.16999817
H     5.60999966   5.73000002  56.47999573
S    17.31999969   9.89999962  52.48000336
C    19.98999977  10.26000023  51.72999954
C    18.72999954   9.78999996  51.40999603
C    18.37000084   9.32999992  50.11000061
C    19.40999985   9.13999939  49.22000122
C    20.72000122   9.56999969  49.54000092
C    21.77000046   9.47000027  48.59000397
C    22.98999977  10.06000042  48.80000305
C    23.26000023  10.80999947  49.97000122
C    22.30999947  10.85999966  50.96000290
C    21.04000092  10.22999954  50.77999878
C    16.93000031   9.22999954  49.92000198
C    16.23999977   9.52000046  51.12999725
C    14.88000011   9.35999966  51.31000137
C    24.68000031  11.26000023  50.26000214
H    25.19931221  10.63397980  50.98561478
H    20.20000076  10.78999996  52.65999603
H    19.34999847   8.51000023  48.33000183
H    21.45000076   8.88000011  47.72999573
H    23.84000015   9.75000000  48.20000076
H    22.50999832  11.36999989  51.90000153
H    14.35999966   9.44999981  52.25999832
H    25.22999954  11.18000031  49.31000137
H    24.70000076  12.32999992  50.48999786
S    13.60000038   8.69000053  47.58999634
C    10.98000050   8.32999992  48.41999817
C    12.25999928   8.71999931  48.75000000
C    12.65999985   9.06000042  50.07999802
C    11.63000011   9.22000027  50.98999786
C    10.29000092   8.84000015  50.72000122
C     9.26000023   8.90999985  51.69000244
C     7.94000053   8.65999985  51.38000107
C     7.59999990   8.25000000  50.06000137
C     8.60000038   8.03999996  49.13999939
C     9.96999931   8.34999943  49.40999985
C    14.11000061   9.11999989  50.15999603
C    14.75999928   8.89000034  48.92000198
C    16.13999939   8.88000011  48.81000137
C     6.19999981   7.72000027  49.85000229
H     5.69436693   8.33957863  49.10935593
H    10.62999916   7.86000013  47.50999832
H    11.87000084   9.73999977  51.90999985
H     9.52999973   8.93999958  52.75000000
H     7.21000004   8.43999958  52.14000320
H     8.48999977   7.59000015  48.15999985
H    16.59000015   8.59000015  47.85999680
H     5.59000015   7.51999950  50.72999954
H     6.42000008   6.75000000  49.36999893
