96

S    17.27000046   9.44999981  58.75999832
C    19.80999947   9.84000015  57.90999985
C    18.60000038   9.27999973  57.60000229
C    18.25000000   8.78999996  56.30000305
C    19.27000046   8.71999931  55.35999680
C    20.58000183   9.13000011  55.68000031
C    21.68999863   9.01000023  54.78000259
C    22.92000008   9.44999981  55.20999908
C    23.15000153  10.06999969  56.45999908
C    22.13000107  10.15999985  57.38999939
C    20.84000015   9.77000046  56.93999863
C    16.80999947   8.59000015  56.23000336
C    16.18999863   8.89000034  57.47000122
C    14.81999969   8.92000008  57.65999603
C    24.54999924  10.50000000  56.84000015
H    25.15625381   9.77962589  57.38919449
H    19.98999977  10.26000023  58.89999771
H    19.17000008   8.34000015  54.34999847
H    21.73999977   8.52999973  53.81000137
H    23.75000000   9.44000053  54.52000046
H    22.29000092  10.57000065  58.39000320
H    14.37000084   9.07999992  58.62999725
H    24.93999863  10.69000053  55.84000015
H    24.44000053  11.47999954  57.34000397
S    13.48999977   7.86000013  54.03999710
C    10.86999989   7.76999998  54.78000259
C    12.15000057   8.05999947  55.19000244
C    12.57999992   8.51000023  56.47999573
C    11.59000015   8.69000053  57.42000198
C    10.24000072   8.40999985  57.08000183
C     9.18000031   8.52999973  58.02000046
C     7.86999989   8.19000053  57.78999710
C     7.53000021   7.79999971  56.46999741
C     8.50000000   7.67000008  55.50000000
C     9.85999966   7.96000004  55.76000214
C    14.02999973   8.56000042  56.55000305
C    14.65999985   8.23999977  55.31999969
C    16.03000069   8.14000034  55.14999771
C     6.14000034   7.27999973  56.18000031
H     5.72625875   7.70800829  55.26691437
H    10.57000065   7.42999983  53.79000092
H    11.95000076   8.82999992  58.43999863
H     9.51000023   8.93999958  58.96999741
H     7.17999983   8.09000015  58.61999893
H     8.28999996   7.20000029  54.54000092
H    16.39999962   7.90000010  54.15999985
H     5.32000017   7.48000050  56.88999939
H     6.24000025   6.21000004  55.96000290
S    17.09000015   9.77999973  52.58999634
C    19.85000038   9.61999989  51.86000061
C    18.51000023   9.44000053  51.58000183
C    18.12000084   9.01000023  50.27000046
C    19.03000069   8.97000027  49.22999954
C    20.38000107   9.31999969  49.43999863
C    21.44000053   9.30999947  48.48999786
C    22.72999954   9.72999954  48.70999908
C    22.98999977  10.21000004  50.01999664
C    22.06999969  10.18000031  51.04000092
C    20.76000023   9.71000004  50.77000046
C    16.67000008   9.01000023  50.13999939
C    15.93999958   9.38000011  51.30000305
C    14.55999947   9.48999977  51.33999634
C    24.38999939  10.70000076  50.33000183
H    24.85975647  10.26583195  51.21257019
H    20.20999908  10.05000019  52.78999710
H    18.65999985   8.76999950  48.22999954
H    21.25000000   9.03999996  47.44999695
H    23.47999954   9.72999954  47.93000031
H    22.25000000  10.67000008  52.00000000
H    14.11999893   9.92000008  52.23999786
H    24.96999931  10.44999981  49.43000031
H    24.33000183  11.79999924  50.34000015
S    13.45000076   8.47999954  47.70999908
C    10.72000027   8.19999981  48.47000122
C    12.02999973   8.50000000  48.76999664
C    12.41000080   8.94999981  50.06999969
C    11.39000034   9.03999996  51.00000000
C    10.03000069   8.76000023  50.70000076
C     9.00000000   8.78999996  51.68000031
C     7.72000027   8.40999985  51.33999634
C     7.32999992   8.14000034  50.00000000
C     8.28999996   8.10000038  49.02000046
C     9.64999962   8.30000019  49.38999939
C    13.83999920   9.17000008  50.18000031
C    14.59000015   8.86999989  49.02000046
C    15.97000027   8.76999950  48.95000076
C     5.88999987   7.83999968  49.61000061
H     5.69046688   8.09654140  48.56958008
H    10.51000023   7.83999968  47.45999908
H    11.59999943   9.38000011  52.01000214
H     9.10000038   9.11000061  52.70999908
H     6.94000006   8.38000011  52.09000015
H     8.05999947   8.07999992  47.95999908
H    16.46000099   8.52000046  48.02000046
H     5.23999977   8.52000046  50.18000031
H     5.71000004   6.76999998  49.71000290
