96

S    16.84999847   9.26000023  58.63999939
C    19.62000084   9.22000027  58.06999969
C    18.31999969   8.97999954  57.69000244
C    17.98999977   8.64000034  56.33999634
C    19.05999947   8.40999985  55.50000000
C    20.42000008   8.59000015  55.83000183
C    21.50000000   8.63000011  54.89999771
C    22.73999977   9.18000031  55.13999939
C    23.02999878   9.50000000  56.49000168
C    22.04000092   9.43000031  57.43999863
C    20.69999886   9.02000046  57.16999817
C    16.55999947   8.51000023  56.11000061
C    15.80999947   8.88000011  57.25999832
C    14.44000053   9.06999969  57.28000259
C    24.38999939  10.08999920  56.79999924
H    24.88980484   9.53307438  57.59254456
H    19.70999908   9.67000008  59.06000137
H    18.86999893   8.28999996  54.43000031
H    21.21000099   8.27999973  53.90999603
H    23.47999954   9.43000031  54.38999939
H    22.20999908   9.89999962  58.40999985
H    13.94000053   9.35999966  58.20000076
H    25.06000137  10.07999992  55.93999863
H    24.23999977  11.16000080  57.02000046
S    13.35000038   7.50999975  53.79000092
C    10.64000034   7.39000034  54.43999863
C    11.92000008   7.71000004  54.80999756
C    12.32999992   8.27999973  56.05999756
C    11.33999920   8.40999985  57.02000046
C    10.01000023   8.07999992  56.69000244
C     8.93000031   8.15999985  57.62000275
C     7.64999962   7.75000000  57.35000229
C     7.31999969   7.16000032  56.11000061
C     8.30999947   7.03000021  55.15999603
C     9.61999989   7.53000021  55.41999817
C    13.73000050   8.67999935  56.13999939
C    14.44000053   8.14999962  55.04000092
C    15.82999992   8.11999989  54.98000336
C     5.88000011   6.81999969  55.77000046
H     5.44631338   7.31767273  54.90262604
H    10.39999962   6.90000010  53.50000000
H    11.51000023   8.96000004  57.94000244
H     9.22999954   8.46000004  58.62999725
H     6.91999960   7.63000011  58.15000153
H     8.15999985   6.61999989  54.16999817
H    16.39999962   7.81000042  54.10999680
H     5.26999998   7.07000017  56.63999939
H     5.78999996   5.73000002  55.68999863
S    13.86000061   5.51999998  50.90999985
C    11.23999977   4.80999994  51.39999771
C    12.55000019   4.69000006  51.77999878
C    13.00000000   4.19999981  53.04999924
C    12.01000023   3.70000005  53.87000275
C    10.64000034   3.72000003  53.50999832
C     9.57999992   3.28000021  54.34000015
C     8.23999977   3.42999983  54.05000305
C     7.82999992   3.95000005  52.80000305
C     8.84000015   4.42000008  51.97999954
C    10.22999954   4.32999992  52.27000427
C    14.42000008   4.42000008  53.23999786
C    15.00000000   5.23000002  52.23999786
C    16.26000023   5.80999947  52.36000061
C     6.38000011   4.21000004  52.49000168
H     6.00144720   3.29575920  52.03287888
H    11.05000019   5.42000008  50.51000214
H    12.20999908   3.61999989  54.93999863
H     9.86999989   2.69000006  55.20999908
H     7.46999979   3.03999996  54.71000290
H     8.56000042   4.78999996  51.00000000
H    16.69999886   6.35999966  51.53999710
H     5.92000008   4.42000008  53.47000122
H     6.32999992   5.07000017  51.81000137
S    17.76000023   3.82999992  55.50000000
C    20.43000031   4.48000002  54.75000000
C    19.06999969   4.55999994  54.54999924
C    18.53000069   5.36000013  53.50000000
C    19.37999916   5.89999962  52.56000137
C    20.76000023   5.59000015  52.63999939
C    21.65999985   6.19000006  51.72000122
C    23.01000214   6.26999950  51.97000122
C    23.61000061   5.59999990  53.06999969
C    22.76000023   5.00000000  53.96999741
C    21.35000038   4.96000004  53.77999878
C    17.06999969   5.36999989  53.40999985
C    16.54000092   4.48999977  54.38000107
C    15.22999954   4.05000019  54.33000183
C    24.94999886   6.15999985  53.48999786
H    25.29117393   5.60559225  54.36425781
H    20.73999786   3.89999986  55.61999893
H    19.05999947   6.67000008  51.86000061
H    21.21000099   6.67999983  50.86000061
H    23.61000061   6.89000034  51.31000137
H    23.19999886   4.71000004  54.92000198
H    14.75000000   3.51000023  55.13999939
H    24.67000008   7.17000008  53.81000137
H    25.53999901   6.10000038  52.56999969
