96

S    16.97000122   9.44999981  59.01000214
C    19.64999962   9.48999977  58.29000092
C    18.38000107   9.02000046  58.02000046
C    18.02999878   8.38999939  56.77999878
C    19.03000069   8.21000004  55.84999847
C    20.34000015   8.64999962  56.13999939
C    21.38999939   8.43999958  55.20000076
C    22.67999840   8.86999989  55.40999985
C    22.98000145   9.61999989  56.56999969
C    21.98999786   9.90999985  57.48000336
C    20.66999817   9.42000008  57.30999756
C    16.59000015   8.31999969  56.58000183
C    15.92000008   8.82000065  57.72999573
C    14.55000019   9.03999996  57.69000244
C    24.41999817   9.98000050  56.88000107
H    24.76269341   9.53735352  57.81526947
H    19.84000015  10.11000061  59.15999985
H    18.82999992   7.75000000  54.87999725
H    21.15999985   7.85000038  54.31000137
H    23.42000008   8.67999935  54.62999725
H    22.13000107  10.43000031  58.43000031
H    13.96999931   9.26000023  58.57999802
H    24.93999863   9.57999992  56.00000000
H    24.57999992  11.05999947  56.79999924
S    13.48999977   7.86999989  54.02000046
C    10.80999947   7.83999968  54.59999847
C    12.05999947   8.21000004  55.01999664
C    12.32999992   8.69999981  56.33999634
C    11.28999901   8.80999947  57.23999786
C     9.98000050   8.38999939  56.90000153
C     8.97000027   8.39999962  57.88999939
C     7.69999981   8.05999947  57.48000336
C     7.44999981   7.59999990  56.16000366
C     8.47000027   7.40999985  55.27000046
C     9.77000046   7.92999983  55.54999924
C    13.76999950   8.65999985  56.59000015
C    14.47999954   8.27000046  55.43000031
C    15.85999966   8.10000038  55.40000153
C     6.11000013   7.07000017  55.70000076
H     5.46446466   7.77937937  55.18215561
H    10.72999954   7.30999994  53.64999771
H    11.56999969   9.04999924  58.27000046
H     9.18000031   8.90999985  58.82999802
H     6.90000010   8.03999996  58.22000122
H     8.36999989   6.89000034  54.31999969
H    16.27000046   7.77999973  54.45000076
H     5.51000023   6.44000006  56.36000061
H     6.34999990   6.30000019  54.95999908
S    17.35000038   9.81000042  52.80000305
C    20.06999969   9.98000050  52.16999817
C    18.79999924   9.61000061  51.79999924
C    18.51000023   9.22000027  50.45000076
C    19.54000092   9.21000004  49.52000046
C    20.86000061   9.61000061  49.84000397
C    21.90999985   9.72999954  48.88999939
C    23.22000122   9.94999981  49.22000122
C    23.47999954  10.14000034  50.61000061
C    22.47999954  10.19999981  51.55000305
C    21.11000061  10.01999950  51.19999695
C    17.06999969   9.09000015  50.28999710
C    16.29999924   9.36999989  51.45000076
C    14.92000008   9.52999973  51.44000244
C    24.89999962  10.48999977  50.97999954
H    25.32571793   9.78046989  51.68952942
H    20.29999924  10.21999931  53.20000076
H    19.29999924   9.04999924  48.47000122
H    21.60000038   9.38000011  47.90999985
H    24.00000000   9.71000004  48.50999832
H    22.70000076  10.31999969  52.61000061
H    14.32000065   9.73999977  52.31999969
H    25.59000015  10.55999947  50.13000107
H    24.86999893  11.52999973  51.33999634
S    14.02999973   8.69999981  47.63999939
C    11.28999901   8.36999989  48.16999817
C    12.56000042   8.65999985  48.62999725
C    12.84000015   9.11000061  49.95999908
C    11.78999996   9.15999985  50.86000061
C    10.47000027   8.84000015  50.47000122
C     9.38000011   8.84000015  51.38999939
C     8.13000011   8.40999985  51.04000092
C     7.90000010   7.94000053  49.72000122
C     8.89999962   8.03999996  48.77999878
C    10.24000072   8.40999985  49.12000275
C    14.26000023   9.30999947  50.22999573
C    15.01999950   9.06999969  49.06000137
C    16.40999985   8.94999981  49.06999969
C     6.48999977   7.50000000  49.43000031
H     6.06349564   8.26059914  48.77602386
H    11.03000069   8.06999969  47.15999985
H    11.95000076   9.42000008  51.90000153
H     9.63000011   9.09000015  52.42000198
H     7.35000038   8.47999954  51.79999924
H     8.75000000   7.65999985  47.77000046
H    16.97000122   8.82000065  48.15000153
H     5.82000017   7.69000006  50.27999878
H     6.44000006   6.44999981  49.10999680
