96

S    17.02000046   9.44000053  59.05000305
C    19.76000023   9.40999985  58.53000259
C    18.48999977   9.07999992  58.11999893
C    18.19000053   8.64999962  56.79000092
C    19.23999977   8.38999939  55.91999817
C    20.52999878   8.89000034  56.24000168
C    21.56999969   8.96000004  55.27000046
C    22.80999947   9.46000004  55.59999847
C    23.12000084   9.82999992  56.93999863
C    22.11000061   9.82999992  57.88000107
C    20.81000137   9.34000015  57.56999969
C    16.76000023   8.64999962  56.52999878
C    16.00000000   9.09000015  57.63999939
C    14.60999966   9.11999989  57.64999771
C    24.54000092  10.18000031  57.31999969
H    24.87402916   9.66829300  58.22259521
H    19.93000031   9.82999992  59.52000046
H    19.03000069   8.09000015  54.89999771
H    21.35999870   8.67999935  54.23999786
H    23.62999916   9.44000053  54.88999939
H    22.34999847   9.92000008  58.93000031
H    14.06999969   9.26000023  58.57999802
H    25.22000122   9.90999985  56.51000214
H    24.75000000  11.25000000  57.38999939
S    13.69999981   7.77999973  54.02000046
C    10.93999958   8.00000000  54.38999939
C    12.20999908   8.19999981  54.87999725
C    12.53000069   8.64999962  56.19999695
C    11.47999954   8.93000031  57.04999924
C    10.15999985   8.69999981  56.59000015
C     9.09000015   8.64999962  57.51999664
C     7.76999998   8.39999962  57.23999786
C     7.46000004   8.01999950  55.90000153
C     8.48999977   7.90000010  54.99000168
C     9.85000038   8.23999977  55.26000214
C    13.96000004   8.78999996  56.45000076
C    14.73999977   8.34999943  55.34999847
C    16.11999893   8.31999969  55.33000183
C     6.11000013   7.49000025  55.48999786
H     5.62794876   8.10674286  54.73147583
H    10.71000004   7.42999983  53.48999786
H    11.50000000   9.26000023  58.09000015
H     9.35000038   8.73000050  58.57999802
H     7.13000011   8.28999996  58.11000061
H     8.27999973   7.57000017  53.97999573
H    16.80999947   7.97999954  54.54999924
H     5.50000000   7.39000034  56.38999939
H     6.21999979   6.50000000  55.01999664
S    13.64999962   5.88999987  50.81999969
C    10.93000031   5.35000038  51.52000046
C    12.28000069   5.27999973  51.77000046
C    12.68000031   4.74000025  53.02999878
C    11.72000027   4.35999966  53.94000244
C    10.32999992   4.39000034  53.64999771
C     9.39000034   3.84000015  54.56999969
C     8.06999969   3.82999992  54.20999908
C     7.59000015   4.32999992  52.97000122
C     8.52000046   4.73000002  52.04000092
C     9.90999985   4.85000038  52.36000061
C    14.13000011   4.65000010  53.13999939
C    14.77000046   5.36000013  52.09999847
C    16.10000038   5.75999975  52.16999817
C     6.17999983   4.00000000  52.51999664
H     5.86546516   4.12152481  51.48346329
H    10.60999966   5.60999966  50.51000214
H    12.15000057   4.05999994  54.88999939
H     9.72000027   3.30999994  55.45999908
H     7.37999964   3.16000009  54.72000122
H     8.34999943   4.80999994  50.97000122
H    16.48999977   6.44000006  51.42000198
H     5.97000027   2.96000004  52.77999878
H     5.64000034   4.81999969  53.02000046
S    17.30999947   4.11999989  55.61000061
C    19.93000031   5.00000000  55.18000031
C    18.60999870   4.98000002  54.75999832
C    18.20999908   5.73999977  53.61999893
C    19.13999939   6.32999992  52.77999878
C    20.51000214   6.23000050  53.09999847
C    21.52000046   6.74000025  52.23999786
C    22.82999992   6.67000008  52.64999771
C    23.19000053   6.06999969  53.88000107
C    22.26000023   5.50000000  54.72000122
C    20.89999962   5.55000019  54.29999924
C    16.82999992   5.40999985  53.30999756
C    16.20000076   4.63999987  54.33000183
C    14.88999939   4.19000006  54.22999954
C    24.57999992   6.32999992  54.41999817
H    25.25885963   5.47963858  54.48431396
H    20.17000008   4.71000004  56.19999695
H    18.82999992   6.67000008  51.79000092
H    21.14999962   7.23999977  51.35000229
H    23.52000046   7.17000008  51.97000122
H    22.63999939   5.26000023  55.70999908
H    14.47999954   3.42999983  54.88999939
H    24.44000053   6.78999996  55.40000153
H    25.10000038   7.16000032  53.92000198
