96

S    17.11000061  10.00000000  58.53000259
C    19.78999901   9.77999973  57.91999817
C    18.51000023   9.35999966  57.63999939
C    18.19000053   8.73999977  56.39999771
C    19.17000008   8.64000034  55.43000031
C    20.51000214   9.02999973  55.68000031
C    21.56999969   8.97999954  54.73999786
C    22.86999893   9.23999977  55.12000275
C    23.21000099   9.78999996  56.38999939
C    22.14999962  10.01000023  57.23999786
C    20.81999969   9.57999992  56.97000122
C    16.73999977   8.64000034  56.25999832
C    16.03999901   9.22999954  57.34000397
C    14.68000031   9.52000046  57.29000092
C    24.61000061  10.21000004  56.76000214
H    24.95764732   9.63531685  57.61847687
H    20.00000000  10.21999931  58.89999771
H    18.88000107   8.30000019  54.43999863
H    21.44000053   8.57999992  53.73000336
H    23.68000031   9.13000011  54.40999985
H    22.29000092  10.50000000  58.20000076
H    14.19000053  10.06000042  58.09999847
H    25.22999954  10.05000019  55.87999725
H    24.57999992  11.30000019  56.90000153
S    13.50999928   7.86000013  53.85000229
C    10.80000019   8.10999966  54.41999817
C    12.09000015   8.40999985  54.77000427
C    12.44999981   8.97000027  56.04000092
C    11.44000053   9.32999992  56.90999985
C    10.11000061   8.93000031  56.63000107
C     9.00000000   9.17000008  57.49000168
C     7.73999977   8.67999935  57.21000290
C     7.50000000   7.88000011  56.06999969
C     8.46000004   7.82999992  55.08999634
C     9.77999973   8.27000046  55.40000153
C    13.89000034   8.97999954  56.25999832
C    14.56999969   8.43000031  55.14999771
C    15.95000076   8.23000050  55.18000031
C     6.17000008   7.21000004  55.79999924
H     5.54817438   7.91044712  55.24250031
H    10.47999954   7.76000023  53.43999863
H    11.73999977   9.85999966  57.81000137
H     9.10000038   9.67000008  58.44999695
H     7.03000021   8.85000038  58.01000214
H     8.42000008   7.55999994  54.02999878
H    16.43000031   7.85000038  54.27999878
H     5.55999994   6.80999994  56.62000275
H     6.44999981   6.30000019  55.26000214
S    13.82999992   6.11000013  50.77999878
C    11.14999962   5.42999983  51.47999573
C    12.51000023   5.36000013  51.69000244
C    13.02999973   4.67000008  52.83000183
C    12.15999985   4.11000013  53.75000000
C    10.76000023   4.18000031  53.56999969
C     9.86999989   3.58000016  54.48999786
C     8.51000023   3.74000025  54.34999847
C     7.95000029   4.55000019  53.31999969
C     8.82999992   5.05999994  52.39999771
C    10.24000072   4.86999989  52.42000198
C    14.47000027   4.79999971  52.97000122
C    15.06000042   5.59000015  51.95000076
C    16.38000107   6.01000023  52.12999725
C     6.48000002   4.86000013  53.16999817
H     6.06063938   4.46196270  52.24598312
H    10.62999916   5.84999990  50.61999893
H    12.61999989   3.81000018  54.68999863
H    10.24000072   2.93000007  55.27999878
H     7.77999973   3.30999994  55.02999878
H     8.39999962   5.73999977  51.65999985
H    16.75000000   6.77999973  51.45999908
H     5.84999990   4.56999969  54.02000046
H     6.32999992   5.95000029  53.15000153
S    17.69000053   4.30999994  55.48999786
C    20.34000015   5.00999975  54.82999802
C    19.00000000   5.07000017  54.56999969
C    18.60999870   5.72000027  53.34999847
C    19.50000000   6.32999992  52.48000336
C    20.88000107   6.17000008  52.69000244
C    21.94000053   6.65999985  51.86999893
C    23.28000069   6.44000006  52.08000183
C    23.64999962   5.71000004  53.23999786
C    22.69000053   5.42000008  54.18000031
C    21.28999901   5.55999994  53.93000031
C    17.18000031   5.51000023  53.15999985
C    16.57999992   4.71000004  54.15999985
C    15.24000072   4.35999966  54.06000137
C    25.06000137   5.29999971  53.61000061
H    25.34559631   5.72125483  54.57388687
H    20.72999954   4.33999968  55.59999847
H    19.23999977   6.78999996  51.52999878
H    21.63000107   7.17999983  50.96000290
H    24.02000046   6.56000042  51.30000305
H    22.98999977   5.00999975  55.13999939
H    14.68999958   3.86000013  54.86000061
H    25.79000092   5.65000010  52.87000275
H    25.09000015   4.21000004  53.72000122
