96

S    16.88999939   9.48000050  58.87000275
C    19.65999985   9.63000011  58.27000046
C    18.36000061   9.39000034  57.88000107
C    17.98999977   8.97999954  56.56000137
C    19.00000000   8.86999989  55.61000061
C    20.36000061   9.01000023  55.97999954
C    21.38000107   8.89000034  55.00000000
C    22.65999985   9.31999969  55.27000046
C    22.98999977   9.71000004  56.59999847
C    22.04999924   9.76000023  57.60000229
C    20.69999886   9.39999962  57.32999802
C    16.55999947   8.89999962  56.31000137
C    15.81999969   9.22000027  57.47000122
C    14.42999935   9.38000011  57.50000000
C    24.41999817  10.08999920  56.90000153
H    24.86828804   9.47805119  57.68272400
H    19.89999962  10.01000023  59.26000214
H    18.75000000   8.55000019  54.61000061
H    21.04000092   8.71000004  53.97999573
H    23.46999931   9.13999939  54.58000183
H    22.14999962  10.22999954  58.56999969
H    13.83999920   9.57999992  58.37999725
H    25.12000084  10.19000053  56.05999756
H    24.23999977  11.05000019  57.39999771
S    13.36999989   7.96999979  53.90999603
C    10.67000008   7.83999968  54.54000092
C    11.92999935   8.19999981  54.93000031
C    12.30000019   8.73999977  56.19999695
C    11.26999950   8.86999989  57.11999893
C     9.92999935   8.56000042  56.77000046
C     8.88000011   8.78999996  57.70000076
C     7.59000015   8.45000076  57.39999771
C     7.32999992   7.71000004  56.20999908
C     8.28999996   7.59000015  55.24000168
C     9.63999939   7.94000053  55.51000214
C    13.73000050   8.90999985  56.38000107
C    14.44000053   8.52000046  55.21999741
C    15.82999992   8.53999996  55.17000198
C     5.88999987   7.36000013  55.90000153
H     5.55591202   7.90733576  55.01857758
H    10.53999996   7.48000050  53.52000427
H    11.54000092   9.11999989  58.13999939
H     9.11000061   9.15000057  58.69999695
H     6.76999998   8.71999931  58.06999969
H     8.06999969   7.23000002  54.22999954
H    16.22999954   8.23999977  54.20999908
H     5.38999987   7.67000008  56.83000183
H     5.84999990   6.26999950  55.79999924
S    17.27000046  10.40999985  52.75000000
C    19.96999931  10.34000015  52.09999847
C    18.67000008  10.11000061  51.70999908
C    18.34000015   9.75000000  50.37000275
C    19.40999985   9.65999985  49.50000000
C    20.73999786   9.92999935  49.87999725
C    21.80000114   9.85999966  48.92000198
C    23.08000183  10.14000034  49.31999969
C    23.44000053  10.46000004  50.65999985
C    22.43999863  10.51000023  51.59999847
C    21.09000015  10.21999931  51.24000168
C    16.88999939   9.77999973  50.21999741
C    16.17000008  10.01000023  51.42000198
C    14.78000069  10.01999950  51.49000168
C    24.86000061  10.82999992  51.02000427
H    25.28702354  10.26063538  51.84558105
H    20.13000107  10.77000046  53.09000015
H    19.26000023   9.17000008  48.54000092
H    21.60000038   9.52999973  47.90000153
H    23.85000038  10.17000008  48.54999924
H    22.60999870  11.02000046  52.55000305
H    14.27999973  10.26999950  52.42000198
H    25.48000145  10.76000023  50.11000061
H    24.97999954  11.90999985  51.14999771
S    13.68999958   8.88000011  47.90000153
C    11.00000000   8.56999969  48.60000229
C    12.27000046   8.97000027  48.95999908
C    12.61999989   9.35000038  50.28999710
C    11.56999969   9.48000050  51.18999863
C    10.21999931   9.22999954  50.84000015
C     9.11000061   9.40999985  51.72000122
C     7.82999992   9.04999924  51.36000061
C     7.57000017   8.51000023  50.07999802
C     8.59000015   8.45000076  49.15999985
C     9.92999935   8.76999950  49.51000214
C    14.04000092   9.67000008  50.34999847
C    14.78999996   9.38000011  49.19000244
C    16.18000031   9.43000031  49.06000137
C     6.17000008   8.01999950  49.75999832
H     5.71917868   8.64256287  48.98716354
H    10.84000015   8.01999950  47.68000031
H    11.78999996   9.72000027  52.22999954
H     9.34000015   9.76000023  52.71999741
H     7.04999971   9.07999992  52.11999893
H     8.43000031   8.05999947  48.15999985
H    16.77000046   9.09000015  48.22000122
H     5.63000011   7.77999973  50.68999863
H     6.44999981   7.07999992  49.26000214
