96

S    17.06999969   9.61000061  58.77999878
C    19.69000053   9.94999981  57.88999939
C    18.42000008   9.50000000  57.63000107
C    18.07999992   8.78999996  56.44000244
C    19.09000015   8.48999977  55.54999924
C    20.40999985   8.93000031  55.79999924
C    21.54999924   8.67999935  54.98000336
C    22.86000061   8.93999958  55.30000305
C    23.13999939   9.75000000  56.44000244
C    22.09000015  10.06999969  57.27000427
C    20.75000000   9.64999962  56.98999786
C    16.62999916   8.61999989  56.33999634
C    15.95999908   9.03999996  57.51999664
C    14.56999969   9.15000057  57.51999664
C    24.54000092  10.19000053  56.76000214
H    25.03281403   9.55434227  57.49564743
H    19.96000099  10.27999973  58.88999939
H    18.81000137   8.00000000  54.61999893
H    21.31000137   8.23000050  54.01000214
H    23.68000031   8.64999962  54.65000153
H    22.09000015  10.81999969  58.04999924
H    14.00000000   9.39000034  58.40000153
H    25.07999802  10.19000053  55.80999756
H    24.50000000  11.23000050  57.11000061
S    13.55999947   8.09000015  53.74000168
C    10.92000008   7.71000004  54.51000214
C    12.18999958   8.11999989  54.86000061
C    12.46000099   8.55000019  56.19999695
C    11.43000031   8.64999962  57.11000061
C    10.07999992   8.42000008  56.72999954
C     9.00000000   8.50000000  57.64999771
C     7.69000006   8.34999943  57.25000000
C     7.44999981   7.95000029  55.90999985
C     8.47000027   7.81000042  55.00000000
C     9.82999992   7.96000004  55.38999939
C    13.89000034   8.73999977  56.36000061
C    14.56999969   8.39999962  55.15999603
C    15.95999908   8.34999943  55.14999771
C     6.12999964   7.34000015  55.47999954
H     5.48049021   8.05374718  54.97324371
H    10.69000053   7.27999973  53.54000092
H    11.65999985   8.90999985  58.13999939
H     9.17000008   8.63000011  58.70999908
H     6.89000034   8.36999989  57.97999954
H     8.32999992   7.46000004  53.97999573
H    16.45000076   8.34000015  54.18000031
H     5.59999990   6.91999960  56.35000229
H     6.26999950   6.47000027  54.81999969
S    17.52000046  10.18000031  52.95000076
C    20.31999969  10.11000061  52.32999802
C    19.00000000   9.89000034  52.01000214
C    18.73999977   9.53999996  50.63999939
C    19.78000069   9.26999950  49.75999832
C    21.11999893   9.59000015  50.06000137
C    22.20999908   9.27999973  49.20000076
C    23.46999931   9.70000076  49.56999969
C    23.71999931  10.26999950  50.84999847
C    22.72000122  10.34999943  51.79000092
C    21.38999939  10.01999950  51.40999603
C    17.30999947   9.46000004  50.38999939
C    16.54000092   9.81999969  51.52000046
C    15.14999962   9.86999989  51.50000000
C    25.07999802  10.80999947  51.23000336
H    25.65833092  10.16026783  51.88687515
H    20.53999901  10.71000004  53.20999908
H    19.54000092   8.85999966  48.79000092
H    22.07999992   8.60999966  48.34999847
H    24.25000000   9.53999996  48.83999634
H    22.82999992  10.60999966  52.84000015
H    14.52999973  10.17000008  52.34000397
H    25.63999939  11.00999928  50.30000305
H    24.82999992  11.77000046  51.70000076
S    14.15999985   8.36999989  48.02000046
C    11.40999985   8.39999962  48.46000290
C    12.65999985   8.80000019  48.86000061
C    13.01000023   9.42000008  50.10000229
C    11.97000027   9.63999939  50.97999954
C    10.64000034   9.22999954  50.68000031
C     9.68000031   9.35999966  51.72000122
C     8.43000031   8.84000015  51.49000168
C     8.11999989   8.25000000  50.22999573
C     9.06000042   8.07999992  49.25000000
C    10.38000011   8.60000038  49.40999985
C    14.45000076   9.48999977  50.34999847
C    15.24000072   8.97999954  49.29000092
C    16.61999893   9.06000042  49.23999786
C     6.69000053   7.82000017  50.00999832
H     6.22745037   8.38217545  49.19876099
H    11.21999931   7.77999973  47.58999634
H    12.23999977  10.00000000  51.97000122
H    10.03999901   9.92999935  52.57999802
H     7.60999966   8.86999989  52.19999695
H     8.75000000   7.48000050  48.39000320
H    17.20000076   8.63000011  48.41999817
H     6.05999994   7.86999989  50.90999985
H     6.70000029   6.80999994  49.59000015
