96

S    17.02000046  10.26000023  58.47000122
C    19.68000031  10.25000000  57.83000183
C    18.39999962  10.01000023  57.38999939
C    18.01000023   9.44000053  56.12999725
C    19.09000015   9.11999989  55.33000183
C    20.43999863   9.36999989  55.68999863
C    21.54000092   9.03999996  54.84000397
C    22.84000015   9.32999992  55.18000031
C    23.12999916  10.01999950  56.38999939
C    22.10000038  10.39999962  57.21000290
C    20.75000000  10.01999950  56.93000031
C    16.56999969   9.26000023  56.00999832
C    15.92000008   9.67000008  57.19999695
C    14.53999996   9.76000023  57.30999756
C    24.54999924  10.34000015  56.79000092
H    25.05510521   9.64992714  57.46584702
H    19.96999931  10.52000046  58.85000229
H    19.04000092   8.60000038  54.38000107
H    21.31000137   8.52000046  53.92000198
H    23.71999931   9.02000046  54.64000320
H    22.21999931  10.82999992  58.20000076
H    14.11000061  10.06999969  58.26000214
H    25.06000137  10.47999954  55.81999969
H    24.54999924  11.31000042  57.29999924
S    13.31999969   8.28999996  53.81000137
C    10.64000034   8.64000034  54.36000061
C    11.94000053   8.80000019  54.79999924
C    12.30000019   9.35000038  56.06999969
C    11.31999969   9.44999981  57.04000092
C     9.98999977   9.10000038  56.70000076
C     8.97999954   9.18000031  57.70999908
C     7.71000004   8.73000050  57.44999695
C     7.46999979   8.11999989  56.18999863
C     8.36999989   8.13000011  55.13999939
C     9.63000011   8.76000023  55.34999847
C    13.73999977   9.34000015  56.24000168
C    14.40999985   8.82999992  55.10000229
C    15.78999996   8.73000050  54.97000122
C     6.11000013   7.50000000  55.97000122
H     5.56910563   8.15476704  55.28676224
H    10.39000034   8.22000027  53.39000320
H    11.40999985   9.89000034  58.02999878
H     9.27999973   9.32999992  58.74000168
H     6.96000004   8.67000008  58.22999954
H     8.15999985   7.53999996  54.26000214
H    16.20000076   8.38999939  54.02999878
H     5.59999990   7.49000025  56.93999863
H     6.21000004   6.48999977  55.54000092
S    13.67000008   6.37000036  50.80999756
C    10.95999908   6.06999969  51.40999603
C    12.25999928   5.75000000  51.70000076
C    12.64000034   5.05999994  52.88999939
C    11.63000011   4.61999989  53.73000336
C    10.26000023   4.86999989  53.47000122
C     9.19999981   4.32999992  54.25000000
C     7.90000010   4.56999969  53.87000275
C     7.51999950   5.33999968  52.74000168
C     8.56000042   5.78000021  51.95000076
C     9.92999935   5.59000015  52.27000427
C    14.07999992   5.00000000  53.08000183
C    14.75999928   5.65999985  52.02000046
C    16.10000038   6.01999998  52.04000092
C     6.05000019   5.64000034  52.51999664
H     5.65966749   4.85933495  51.86707687
H    10.73999977   6.75000000  50.59000015
H    11.77000046   4.00000000  54.61000061
H     9.48000050   3.65000010  55.05000305
H     7.07000017   4.33999968  54.52999878
H     8.34000015   6.40999985  51.09000397
H    16.48999977   6.65999985  51.25999832
H     5.47999954   5.55999994  53.44999695
H     5.86999989   6.65000010  52.14000320
S    17.38000107   4.56999969  55.48999786
C    20.05000114   5.10999966  54.91000366
C    18.72999954   5.18000031  54.52000046
C    18.31999969   5.69999981  53.25000000
C    19.23999977   6.28999996  52.39999771
C    20.59999847   6.26999950  52.77999878
C    21.56999969   6.67000008  51.81000137
C    22.88000107   6.38999987  52.09000015
C    23.31999969   5.59000015  53.18000031
C    22.36000061   5.14999962  54.05000305
C    21.01000023   5.56999969  53.96999741
C    16.87999916   5.53999996  53.09999847
C    16.21999931   4.90000010  54.18000031
C    14.85999966   4.63999987  54.19000244
C    24.79000092   5.26999998  53.40000153
H    25.24669075   5.83372641  54.21347809
H    20.38000107   4.48000002  55.72999954
H    18.90999985   6.65999985  51.44000244
H    21.22999954   7.23000002  50.93999863
H    23.61999893   6.85999966  51.44000244
H    22.59000015   4.46999979  54.87999725
H    14.37999916   4.15999985  55.04000092
H    25.43999863   5.26000023  52.51999664
H    24.79999924   4.19999981  53.64999771
