96

S    16.50000000   9.63999939  58.61999893
C    19.18000031   9.63000011  57.91999817
C    17.87999916   9.44000053  57.52999878
C    17.60000038   8.85999966  56.25000000
C    18.65999985   8.51000023  55.43000031
C    20.00000000   8.84000015  55.73999786
C    21.09000015   8.71000004  54.84000397
C    22.37999916   9.01000023  55.18000031
C    22.65000153   9.50000000  56.49000168
C    21.61000061   9.75000000  57.35000229
C    20.25000000   9.51000023  57.00000000
C    16.14999962   8.75000000  56.14999771
C    15.43000031   9.06000042  57.32999802
C    14.04000092   9.01000023  57.36000061
C    24.04000092  10.00000000  56.81000137
H    24.38943672   9.42236137  57.66576385
H    19.37999916   9.53999996  58.99000168
H    18.42000008   8.18000031  54.43000031
H    20.90999985   8.43999958  53.80000305
H    23.12999916   8.92000008  54.38999939
H    21.71999931  10.29000092  58.27999878
H    13.53000069   9.13000011  58.30999756
H    24.79999924   9.96000004  56.03000259
H    24.21999931  11.03000069  57.15999985
S    13.01000023   7.51999950  53.86000061
C    10.26000023   7.49000025  54.54999924
C    11.57999992   7.69999981  54.87999725
C    11.90000057   8.23999977  56.17000198
C    10.95000076   8.34999943  57.16999817
C     9.59000015   8.10999966  56.86999893
C     8.56999969   8.42000008  57.81000137
C     7.23999977   8.19999981  57.52999878
C     6.91999960   7.59999990  56.29000092
C     7.88000011   7.39000034  55.33000183
C     9.25000000   7.72000027  55.52000046
C    13.31999969   8.57999992  56.24000168
C    14.07999992   8.19999981  55.11000061
C    15.46000004   8.26000023  55.02999878
C     5.47999954   7.30000019  55.93000031
H     5.08884621   7.93295765  55.13346863
H    10.03000069   7.09999990  53.55999756
H    11.06999969   8.86999989  58.11999893
H     8.75000000   8.92000008  58.75999832
H     6.42000008   8.56999969  58.15000153
H     7.59999990   7.07000017  54.33000183
H    16.03000069   7.92999983  54.15999985
H     4.86999989   7.49000025  56.81999969
H     5.25000000   6.26999950  55.63000107
S    16.97999954  10.29000092  52.80000305
C    19.72999954  10.06999969  52.35000229
C    18.45000076   9.68999958  52.00000000
C    18.02999878   8.85999966  50.90999985
C    19.06999969   8.38999939  50.13000107
C    20.38000107   8.89999962  50.30000305
C    21.42999840   8.53999996  49.40999985
C    22.69000053   9.09000015  49.51000214
C    23.05999947   9.85000038  50.65000153
C    22.06000137  10.25000000  51.51000214
C    20.72999954   9.77999973  51.38000107
C    16.59000015   8.78999996  50.72999954
C    15.84000015   9.50000000  51.70000076
C    14.45000076   9.51000023  51.72000122
C    24.47999954  10.36000061  50.75000000
H    24.92094612   9.86927032  51.61766815
H    19.89999962  10.53999996  53.30999756
H    18.95000076   7.51999950  49.48999786
H    21.11999893   7.96000004  48.54000092
H    23.31999969   8.97999954  48.63999939
H    22.29000092  10.92000008  52.34000397
H    13.92000008   9.98000050  52.55000305
H    25.00000000  10.29999924  49.79000092
H    24.40000153  11.43000031  51.00999832
S    13.42000008   8.01999950  48.18000031
C    10.65000057   8.10000038  48.72000122
C    11.95000076   8.32999992  49.10999680
C    12.31999969   8.84000015  50.40000153
C    11.28999901   9.09000015  51.30000305
C     9.96000004   8.78000069  50.94999695
C     8.89000034   8.96000004  51.86999893
C     7.59000015   8.53999996  51.66999817
C     7.30000019   8.05999947  50.37000275
C     8.23999977   7.96999979  49.36000061
C     9.57999992   8.36000061  49.61999893
C    13.73000050   9.11999989  50.59000015
C    14.46000004   8.55000019  49.51000214
C    15.82999992   8.30999947  49.65000153
C     5.98999977   7.34000015  50.18000031
H     5.61160898   7.76836777  49.25187302
H    10.60999966   7.62000036  47.75000000
H    11.52999973   9.32999992  52.32999802
H     9.19000053   9.44000053  52.80000305
H     6.76999998   8.56000042  52.37999725
H     7.97999954   7.60999966  48.36999893
H    16.21999931   7.76000023  48.81000137
H     5.36999989   7.49000025  51.06999969
H     6.12999964   6.25000000  50.15999603
