96

S    17.19000053   9.81000042  58.61999893
C    19.85999870  10.11000061  57.83000183
C    18.56999969   9.77999973  57.50000000
C    18.17000008   9.11999989  56.30000305
C    19.15999985   8.78000069  55.40000153
C    20.50000000   9.17000008  55.65000153
C    21.47999954   9.02999973  54.61999893
C    22.79000092   9.39000034  54.85000229
C    23.15000153  10.03000069  56.05999756
C    22.23999977  10.11000061  57.09000015
C    20.86999893   9.77000046  56.90000153
C    16.72000122   8.97999954  56.20999908
C    16.01000023   9.36999989  57.36999893
C    14.63000107   9.44999981  57.48000336
C    24.56999969  10.44999981  56.36000061
H    25.01540184   9.74301243  57.05991745
H    19.98999977  10.76000023  58.69999695
H    18.88000107   8.14000034  54.56999969
H    21.14999962   8.76000023  53.61999893
H    23.47999954   9.25000000  54.02999878
H    22.50999832  10.64000034  58.01000214
H    14.11000061   9.61999989  58.41999817
H    25.13000107  10.36000061  55.41999817
H    24.57999992  11.47999954  56.72000122
S    13.45999908   7.96999979  53.95000076
C    10.73999977   8.03999996  54.62999725
C    12.05000019   8.28999996  54.98000336
C    12.43000031   8.93999958  56.19999695
C    11.43000031   9.22999954  57.11000061
C    10.11999989   8.73999977  56.95999908
C     9.15000057   8.78000069  58.00000000
C     7.86000013   8.39999962  57.70000076
C     7.50999975   7.85000038  56.43000031
C     8.43999958   7.81000042  55.41999817
C     9.80000019   8.17000008  55.66999817
C    13.86999989   9.06000042  56.37000275
C    14.55000019   8.56000042  55.21999741
C    15.93999958   8.47999954  55.17000198
C     6.12999964   7.30999994  56.12999725
H     5.54630232   7.89369822  55.41817474
H    10.59999943   7.59999990  53.63999939
H    11.76000023   9.57999992  58.09000015
H     9.35000038   9.27999973  58.94000244
H     7.07999992   8.61999989  58.40999985
H     8.14999962   7.48000050  54.43000031
H    16.35000038   8.19000053  54.20000076
H     5.55999994   7.25000000  57.06999969
H     6.28000021   6.28999996  55.77000046
S    17.12000084  10.57000065  52.44999695
C    19.77000046  10.70000076  51.66999817
C    18.50000000  10.24000072  51.39999771
C    18.11000061   9.52999973  50.21999741
C    19.07999992   9.36999989  49.25000000
C    20.39999962   9.82999992  49.51000214
C    21.45000076   9.61000061  48.56999969
C    22.75000000   9.96999931  48.79000092
C    23.12999916  10.51000023  50.05000305
C    22.19000053  10.62000084  51.04000092
C    20.81000137  10.42000008  50.76000214
C    16.69999886   9.18000031  50.26000214
C    16.00000000   9.72000027  51.37000275
C    14.61999989   9.76000023  51.51000214
C    24.57999992  10.90999985  50.25000000
H    25.14099121  10.15727711  50.80389404
H    20.06999969  11.11999989  52.63000107
H    18.81999969   9.04999924  48.23999786
H    21.22999954   8.97999954  47.70999908
H    23.36999893   9.72000027  47.93000031
H    22.46000099  11.14999962  51.95999908
H    14.19000053  10.01999950  52.47000122
H    25.07999802  11.03000069  49.27999878
H    24.71999931  11.84000015  50.79999924
S    13.48000050   8.30999947  47.97000122
C    10.85999966   8.10000038  48.88999939
C    12.13000107   8.55000019  49.10999680
C    12.46000099   9.19999981  50.34000015
C    11.44999981   9.30999947  51.27999878
C    10.11999989   8.89999962  51.03000259
C     9.04999924   9.09000015  51.95000076
C     7.79999971   8.61999989  51.63000107
C     7.50999975   7.90000010  50.45000076
C     8.52000046   7.60999966  49.55999756
C     9.81999969   8.11999989  49.85000229
C    13.90999985   9.36999989  50.37000275
C    14.59000015   8.85000038  49.23999786
C    15.97000027   8.75000000  49.15000153
C     6.11999989   7.34000015  50.27000046
H     5.58477068   7.98227501  49.57063293
H    10.65000057   7.62000036  47.93000031
H    11.59999943   9.86999989  52.19999695
H     9.22000027   9.71000004  52.81999969
H     7.05999947   8.61999989  52.43000031
H     8.31999969   6.96000004  48.70999908
H    16.42000008   8.55000019  48.16999817
H     5.68000031   7.09000015  51.24000168
H     6.25000000   6.42000008  49.68000031
