96

S    16.95000076   9.85000038  58.76999664
C    19.69000053   9.90999985  58.15999985
C    18.43000031   9.46000004  57.85999680
C    18.15000153   8.85999966  56.59999847
C    19.18000031   8.67999935  55.68999863
C    20.48999977   9.11000061  56.00000000
C    21.51000023   9.04999924  55.00000000
C    22.78000069   9.50000000  55.27999878
C    23.09000015   9.98000050  56.58000183
C    22.10000038  10.18000031  57.50999832
C    20.78000069   9.71000004  57.28000259
C    16.72000122   8.63000011  56.40999603
C    15.95000076   9.13999939  57.49000168
C    14.56999969   9.27999973  57.44999695
C    24.50000000  10.40999985  56.90999985
H    25.06163597   9.66352177  57.47163773
H    19.80999947  10.51000023  59.06999969
H    19.04000092   8.22000027  54.72000122
H    21.31000137   8.51000023  54.09000015
H    23.61999893   9.44999981  54.59000015
H    22.36999893  10.62999916  58.46000290
H    14.06000042   9.65999985  58.31999969
H    25.00999832  10.64000034  55.97000122
H    24.53000069  11.36999989  57.43999863
S    13.60999966   7.49000025  54.03999710
C    10.82999992   7.65999985  54.52000046
C    12.11999989   7.99000025  54.86000061
C    12.43000031   8.67000008  56.07999802
C    11.39999962   8.94999981  56.95999908
C    10.05000019   8.67000008  56.65999985
C     8.97000027   8.78000069  57.57999802
C     7.68000031   8.39999962  57.31999969
C     7.46000004   7.67000008  56.11999893
C     8.43999958   7.57000017  55.17000198
C     9.77999973   7.96999979  55.41999817
C    13.86000061   8.76999950  56.35000229
C    14.61999989   8.19000053  55.31000137
C    16.00000000   8.01999950  55.38000107
C     6.09000015   7.14999962  55.73999786
H     5.62842417   7.78910542  54.98727417
H    10.60999966   6.98999977  53.69999695
H    11.65999985   9.30000019  57.95999908
H     9.21000004   9.17000008  58.56999969
H     6.86999989   8.64000034  58.01000214
H     8.25000000   7.03000021  54.23999786
H    16.59000015   7.59999990  54.56999969
H     5.45000029   7.16000032  56.63000107
H     6.17999983   6.12999964  55.34999847
S    13.30999947   5.71000004  50.94999695
C    10.67999935   5.29999971  51.65000153
C    12.00000000   5.13000011  51.98999786
C    12.43999958   4.48999977  53.20000076
C    11.44999981   4.01999998  54.05000305
C    10.07999992   4.23999977  53.77999878
C     9.10000038   3.61999989  54.59000015
C     7.76000023   3.78999996  54.34999847
C     7.34000015   4.48000002  53.18000031
C     8.27000046   4.88000011  52.25999832
C     9.67000008   4.88999987  52.56000137
C    13.89000034   4.46000004  53.27000046
C    14.47999954   5.07999992  52.14000320
C    15.80999947   5.46000004  52.09999847
C     5.86000013   4.67000008  52.94000244
H     5.44100475   4.28651285  52.00968933
H    10.50000000   5.73999977  50.68000031
H    11.76000023   3.35000014  54.85000229
H     9.48000050   2.96999979  55.38000107
H     7.04999971   3.30000019  55.01999664
H     8.01000023   5.29999971  51.29000092
H    16.13000107   6.06999969  51.25999832
H     5.25000000   4.28999996  53.76999664
H     5.79999971   5.75000000  52.80000305
S    17.20000076   4.11999989  55.61000061
C    19.86999893   4.57999992  54.86999893
C    18.53000069   4.79999971  54.65999985
C    18.04999924   5.47999954  53.48999786
C    18.96000099   6.11000013  52.65999603
C    20.34000015   6.00000000  52.95000076
C    21.31000137   6.61000013  52.09999847
C    22.63999939   6.32999992  52.25999832
C    23.12999916   5.38999987  53.20999908
C    22.23999977   4.94999981  54.15999985
C    20.84000015   5.19000006  54.02000046
C    16.65999985   5.17000008  53.18000031
C    16.09000015   4.48000002  54.27999878
C    14.75000000   4.11000013  54.31999969
C    24.61999893   5.18000031  53.34999847
H    25.07152176   5.67452431  54.21004105
H    20.15999985   3.79999995  55.56000137
H    18.64999962   6.58999968  51.73999786
H    20.98999977   7.18999958  51.24000168
H    23.43000031   6.88000011  51.75000000
H    22.57999802   4.46000004  55.06000137
H    14.32999992   3.63999987  55.20000076
H    25.06999969   5.42999983  52.37999725
H    24.77999878   4.09999990  53.47999954
