96

S    16.95999908   9.21000004  58.99000168
C    19.64999962   9.46000004  58.23999786
C    18.37000084   9.06000042  57.93000031
C    18.02999878   8.56000042  56.63000107
C    19.06999969   8.63000011  55.72000122
C    20.38999939   9.10000038  55.96000290
C    21.44000053   9.26000023  55.00999832
C    22.70999908   9.65999985  55.38999939
C    22.98000145  10.01000023  56.72999954
C    21.97000122  10.03999901  57.67000198
C    20.71000099   9.50000000  57.29999924
C    16.59000015   8.47999954  56.45999908
C    15.86999989   8.85000038  57.63000107
C    14.48999977   8.93000031  57.76000214
C    24.31999969  10.53999996  57.18000031
H    24.89092445   9.88343811  57.83655930
H    19.77000046   9.84000015  59.25000000
H    18.86000061   8.34000015  54.68999863
H    21.15999985   8.89000034  54.02999878
H    23.43000031   9.77000046  54.59000015
H    22.10000038  10.54999924  58.61999893
H    13.94000053   9.00000000  58.69999695
H    24.93999863  10.72000027  56.27999878
H    24.06999969  11.51999950  57.62000275
S    13.40000057   7.92999983  54.06000137
C    10.69000053   7.73999977  54.82999802
C    11.97000027   8.19000053  55.07999802
C    12.31999969   8.56999969  56.42000198
C    11.36000061   8.60999966  57.41000366
C     9.98000050   8.47999954  57.09999847
C     8.89999962   8.65999985  58.01000214
C     7.59999990   8.43999958  57.61000061
C     7.27999973   7.99000025  56.30000305
C     8.32999992   7.72000027  55.45999908
C     9.67000008   8.06999969  55.76000214
C    13.76000023   8.73999977  56.59000015
C    14.46000004   8.42000008  55.40000153
C    15.82999992   8.21000004  55.31999969
C     5.91000032   7.40999985  56.04999924
H     5.36275673   7.95724344  55.28244019
H    10.43000031   7.28999996  53.87000275
H    11.56000042   8.82000065  58.44999695
H     9.13000011   8.86999989  59.05000305
H     6.84999990   8.65999985  58.36999893
H     8.17000008   7.14999962  54.54000092
H    16.34000015   7.92999983  54.40000153
H     5.46999979   7.55000019  57.04000092
H     5.92000008   6.32000017  55.90000153
S    13.53999996   6.03999996  51.05999756
C    10.90000057   5.49000025  51.79000092
C    12.25000000   5.32999992  52.04999924
C    12.76000023   4.55000019  53.13000107
C    11.87000084   4.01999998  54.05000305
C    10.48999977   4.19000006  53.81999969
C     9.52999973   3.68999982  54.75000000
C     8.18000031   3.71000004  54.51000214
C     7.63000011   4.32999992  53.34999847
C     8.56000042   4.88000011  52.50000000
C     9.96999931   4.88999987  52.68000031
C    14.21000004   4.63000011  53.20999908
C    14.77000046   5.42999983  52.18000031
C    16.06999969   5.92999983  52.22999954
C     6.12999964   4.48999977  53.25000000
H     5.83107185   4.55405617  52.20375061
H    10.67000008   6.00000000  50.86000061
H    12.13999939   3.35000014  54.86000061
H     9.85000038   3.01999998  55.54999924
H     7.51999950   3.17000008  55.18000031
H     8.09000015   5.45000029  51.70999908
H    16.48999977   6.37000036  51.32999802
H     5.69999981   3.54999995  53.61999893
H     5.69000006   5.21000004  53.95000076
S    17.53999901   4.15000010  55.45999908
C    20.12000084   5.05000019  54.89999771
C    18.77000046   5.12000036  54.62999725
C    18.29000092   5.84999990  53.48999786
C    19.15999985   6.40999985  52.56999969
C    20.53999901   6.39999962  52.85999680
C    21.44000053   7.07999992  51.97999954
C    22.76000023   7.16000032  52.34000397
C    23.23999786   6.56000042  53.53000259
C    22.37999916   5.88000011  54.36999893
C    20.98999977   5.82999992  54.09999847
C    16.84999847   5.69000006  53.36999893
C    16.31999969   4.79999971  54.34000015
C    15.01999950   4.30000019  54.29999924
C    24.72999954   6.67999983  53.80000305
H    25.10007095   6.14624310  54.67536163
H    20.45999908   4.35999966  55.66999817
H    18.73999977   6.88000011  51.68000031
H    21.01000023   7.63000011  51.13999939
H    23.36999893   7.86999989  51.79000092
H    22.75000000   5.27999973  55.19000244
H    14.70000076   3.84999990  55.22999573
H    25.05000114   7.71000004  54.02000046
H    25.36000061   6.44000006  52.94000244
