96

S    17.05000114   9.13000011  58.81000137
C    19.78000069   8.98999977  58.16999817
C    18.46999931   8.67999935  57.84999847
C    18.07999992   8.30000019  56.52000046
C    19.05999947   8.19000053  55.56000137
C    20.42000008   8.52000046  55.81999969
C    21.45000076   8.43000031  54.84000397
C    22.72999954   8.82000065  55.15999603
C    23.05999947   9.38000011  56.43000031
C    22.09000015   9.36999989  57.39999771
C    20.76999855   8.90999985  57.15999985
C    16.62999916   8.27000046  56.38000107
C    15.93999958   8.89000034  57.44999695
C    14.57999992   9.18000031  57.36999893
C    24.46000099   9.78999996  56.81999969
H    24.92393494   9.14048958  57.56229401
H    19.96000099   9.44999981  59.13999939
H    18.68000031   7.92000008  54.58000183
H    21.09000015   8.11999989  53.86000061
H    23.46999931   8.55000019  54.41999817
H    22.29000092   9.85000038  58.36000061
H    14.28999996   9.68999958  58.27999878
H    25.00999832   9.68999958  55.87999725
H    24.60000038  10.85999966  57.04000092
S    13.47000027   7.57999992  53.92000198
C    10.73999977   7.85000038  54.38999939
C    12.02000046   8.19999981  54.73999786
C    12.42000008   8.89999962  55.93000031
C    11.36000061   9.30000019  56.72000122
C    10.05000019   8.80000019  56.56000137
C     9.11999989   8.92000008  57.63000107
C     7.82999992   8.47000027  57.44999695
C     7.46999979   7.86000013  56.20999908
C     8.39999962   7.63999987  55.21999741
C     9.71000004   8.17000008  55.31000137
C    13.83999920   8.78000069  56.25000000
C    14.55000019   8.14000034  55.20000076
C    15.93000031   7.94000053  55.20999908
C     6.11000013   7.26000023  55.96000290
H     5.63350487   7.80050182  55.14213562
H    10.57999992   7.03999996  53.68000031
H    11.69000053   9.80000019  57.63000107
H     9.47000027   9.35000038  58.56999969
H     7.11999989   8.47000027  58.27000046
H     8.07999992   7.07999992  54.34999847
H    16.56999969   7.75000000  54.34999847
H     5.56999969   7.36999989  56.90999985
H     6.19999981   6.19000006  55.77000046
S    13.81999969   5.55999994  51.06999969
C    11.17000008   5.05999994  51.77999878
C    12.51000023   4.96000004  52.09999847
C    13.00000000   4.35999966  53.29999924
C    12.09000015   3.98000002  54.26000214
C    10.70000076   4.01999998  53.95999908
C     9.76000023   3.55999994  54.93000031
C     8.42000008   3.65999985  54.65999985
C     7.92999983   4.25000000  53.46000290
C     8.82999992   4.75000000  52.54000092
C    10.22999954   4.65999985  52.77000046
C    14.44000053   4.53000021  53.43999863
C    15.01999950   5.15999985  52.30999756
C    16.39000130   5.38999987  52.22999954
C     6.51999998   3.86000013  53.08000183
H     6.04367542   4.47851086  52.31930542
H    10.85000038   5.32999992  50.77999878
H    12.38999939   3.49000001  55.18000031
H    10.13000011   3.00000000  55.79000092
H     7.69000006   3.07999992  55.21999741
H     8.43999958   5.07999992  51.58000183
H    16.84000015   5.86999989  51.37000275
H     6.44999981   2.80999994  52.78999710
H     5.92999983   3.97000027  54.00000000
S    17.79000092   4.01999998  55.72000122
C    20.45000076   4.51000023  55.02999878
C    19.11000061   4.61000013  54.69999695
C    18.67000008   5.07000017  53.41999817
C    19.59000015   5.64000034  52.55000305
C    20.95999908   5.61999989  52.88000107
C    21.97000122   6.14000034  52.02000046
C    23.29000092   5.80999947  52.22999954
C    23.74000168   5.14999962  53.40999985
C    22.79000092   4.82999992  54.34999847
C    21.40000153   5.01999950  54.12000275
C    17.22999954   4.96000004  53.27000046
C    16.63999939   4.36999989  54.41999817
C    15.26999950   4.15000010  54.50000000
C    25.19000053   4.86000013  53.70999908
H    25.63828850   5.47194910  54.49272156
H    20.72000122   3.91999984  55.90000153
H    19.27999878   6.25000000  51.70000076
H    21.73000145   6.52999973  51.04000092
H    24.05999947   6.01999998  51.49000168
H    23.06999969   4.28000021  55.25000000
H    14.94999981   3.71000004  55.44000244
H    25.78000069   4.84000015  52.78999710
H    25.26000023   3.78999996  53.95999908
