96

S    17.18000031   9.43000031  58.83999634
C    19.85999870   9.48000050  58.18999863
C    18.59000015   9.10000038  57.83000183
C    18.23999977   8.52999973  56.56000137
C    19.22999954   8.27999973  55.63000107
C    20.55000114   8.69000053  55.93999863
C    21.63999939   8.63000011  55.02999878
C    22.90999985   9.07999992  55.34000015
C    23.23999786   9.63000011  56.60999680
C    22.19000053   9.71000004  57.50000000
C    20.88000107   9.22999954  57.22999954
C    16.79999924   8.43999958  56.43000031
C    16.06999969   8.86999989  57.56999969
C    14.70000076   9.06000042  57.56999969
C    24.69000053   9.84000015  56.98999786
H    25.01755142   9.05672550  57.67358398
H    20.06999969  10.01000023  59.12000275
H    19.01000023   7.72000027  54.72000122
H    21.44000053   8.26000023  54.02999878
H    23.67000198   8.93000031  54.58000183
H    22.32999992  10.03000069  58.53000259
H    14.21000004   9.36999989  58.48999786
H    25.27000046   9.94000053  56.05999756
H    24.69000053  10.85000038  57.41000366
S    13.57999992   7.76999998  54.02000046
C    10.84000015   7.82000017  54.62999725
C    12.13999939   8.05999947  55.01999664
C    12.53999901   8.63000011  56.26999664
C    11.56000042   8.65999985  57.25000000
C    10.19999981   8.47999954  56.90999985
C     9.25000000   8.47000027  57.97000122
C     7.95000029   8.11999989  57.68000031
C     7.55999994   7.69999981  56.38000107
C     8.50000000   7.51999950  55.40000153
C     9.82999992   7.97999954  55.61000061
C    13.99000072   8.75000000  56.39999771
C    14.70999908   8.15999985  55.33000183
C    16.09000015   8.02999973  55.28999710
C     6.19000006   7.09999990  56.17000198
H     5.63903570   7.60858250  55.37887573
H    10.47000027   7.23000002  53.80000305
H    11.77999973   8.67999935  58.30999756
H     9.61000061   8.64999962  58.97999573
H     7.16000032   8.11999989  58.43000031
H     8.36999989   7.04999971  54.41999817
H    16.60000038   7.69999981  54.38999939
H     5.59000015   7.17000008  57.08000183
H     6.32999992   6.02999973  56.03000259
S    13.35000038   5.75000000  50.81999969
C    10.67000008   5.23999977  51.36000061
C    11.97999954   5.14999962  51.77000046
C    12.43999958   4.46999979  52.94000244
C    11.51000023   3.77999997  53.69999695
C    10.13000011   3.91000009  53.43000031
C     9.07999992   3.30999994  54.20000076
C     7.75000000   3.44000006  53.90999603
C     7.37999964   4.28000021  52.83000183
C     8.34999943   4.79999971  52.00000000
C     9.73999977   4.69000006  52.28000259
C    13.89000034   4.56999969  53.09999847
C    14.55000019   5.23999977  52.04000092
C    15.88000107   5.65000010  52.04000092
C     5.91000032   4.42000008  52.49000168
H     5.63904953   3.62853909  51.79123306
H    10.32999992   5.75000000  50.47000122
H    11.72999954   3.03999996  54.47000122
H     9.31999969   2.69000006  55.05000305
H     7.02000046   2.96000004  54.55999756
H     8.10000038   5.25000000  51.04999924
H    16.39000130   6.05000019  51.17000198
H     5.26000023   4.35999966  53.36999893
H     5.84999990   5.42999983  52.04999924
S    17.17000008   3.98000002  55.38000107
C    19.81999969   4.90000010  54.87999725
C    18.45999908   4.94000006  54.64000320
C    17.97999954   5.56999969  53.43999863
C    18.84000015   6.12999964  52.51999664
C    20.22999954   6.02999973  52.75000000
C    21.21999931   6.43000031  51.81000137
C    22.55000114   6.47000027  52.16999817
C    23.05000114   6.09000015  53.43999863
C    22.13999939   5.49000025  54.27999878
C    20.75000000   5.49000025  53.97999573
C    16.55999947   5.33999968  53.22000122
C    15.98000050   4.44999981  54.15000153
C    14.63999939   4.07000017  54.16999817
C    24.53000069   5.82000017  53.57999802
H    24.89837837   5.58622217  54.57886887
H    20.17999840   4.32999992  55.72999954
H    18.53999901   6.51999998  51.55000305
H    20.86999893   6.84000015  50.86999893
H    23.22000122   6.67999983  51.35000229
H    22.46999931   4.96000004  55.17000198
H    14.11999893   3.52999973  54.94999695
H    24.90999985   6.75000000  53.13999939
H    24.82999992   5.05000019  52.85999680
