96

S    16.47999954   9.53999996  58.63999939
C    19.18000031   9.59999943  57.90000153
C    17.89999962   9.17000008  57.63999939
C    17.56000137   8.61999989  56.36000061
C    18.56999969   8.50000000  55.41999817
C    19.93999863   8.69999981  55.72999954
C    20.98999977   8.40999985  54.80999756
C    22.25000000   8.80000019  55.18000031
C    22.50000000   9.53999996  56.36000061
C    21.54999924   9.73999977  57.34000397
C    20.23999977   9.27999973  57.01000214
C    16.11999893   8.53999996  56.18000031
C    15.43000031   9.09000015  57.28000259
C    14.04000092   9.13000011  57.31999969
C    23.90000153  10.05000019  56.60999680
H    24.42978668   9.34838963  57.25433350
H    19.38999939  10.22999954  58.75000000
H    18.26000023   8.30000019  54.40000153
H    20.88000107   8.10999966  53.76999664
H    23.01000214   8.89000034  54.40000153
H    21.57999992  10.38000011  58.20999908
H    13.50999928   9.53999996  58.18000031
H    24.34000015  10.14999962  55.61000061
H    23.81999969  11.06999969  57.02999878
S    12.82999992   8.10000038  53.68000031
C    10.14000034   7.86000013  54.52000046
C    11.44000053   8.23000050  54.78000259
C    11.85999966   8.64999962  56.07999802
C    10.95999908   8.63000011  57.14000320
C     9.59999943   8.28999996  56.91999817
C     8.64999962   8.42000008  57.97000122
C     7.36000013   8.01000023  57.72999573
C     6.97000027   7.49000025  56.46999741
C     7.88999987   7.40999985  55.45000076
C     9.22999954   7.86999989  55.59999847
C    13.30999947   8.76000023  56.18000031
C    13.99000072   8.43999958  54.98000336
C    15.34999943   8.18000031  55.06999969
C     5.51999998   7.31999969  56.04999924
H     5.27862215   7.85955095  55.13418198
H     9.86999989   7.50000000  53.53000259
H    11.32999992   8.96000004  58.09999847
H     9.11999989   8.89000034  58.82999802
H     6.57000017   8.38000011  58.37999725
H     7.46000004   7.11999989  54.48999786
H    15.85000038   7.81000042  54.18000031
H     4.92999983   7.68000031  56.90000153
H     5.40999985   6.23000050  55.97999954
S    17.04000092   9.94999981  52.63999939
C    19.79999924  10.07999992  52.00000000
C    18.50000000   9.78999996  51.63999939
C    18.20000076   9.25000000  50.34999847
C    19.22999954   9.04999924  49.45000076
C    20.55000114   9.46000004  49.77000427
C    21.70000076   9.23999977  48.95999908
C    22.96999931   9.40999985  49.47000122
C    23.19999886  10.08999920  50.70000076
C    22.14999962  10.36999893  51.53999710
C    20.86000061  10.00000000  51.06999969
C    16.76000023   9.13000011  50.14999771
C    16.01000023   9.63000011  51.23000336
C    14.61999989   9.76000023  51.20999908
C    24.59000015  10.53999996  51.06999969
H    24.96754265   9.82053471  51.79658890
H    20.06999969  10.44000053  52.98999786
H    19.10000038   8.55000019  48.50000000
H    21.60000038   8.75000000  48.00000000
H    23.80000114   9.35000038  48.76999664
H    22.32999992  10.60999966  52.58999634
H    14.04000092  10.17000008  52.02999878
H    25.25000000  10.59000015  50.19000244
H    24.57999992  11.56000042  51.47999573
S    13.71000099   8.09000015  47.71999741
C    10.98000050   8.17000008  48.23999786
C    12.25000000   8.56000042  48.61000061
C    12.46999931   9.19999981  49.86999893
C    11.36999989   9.52999973  50.63000107
C    10.11000061   8.94999981  50.34000015
C     9.06000042   9.06000042  51.30000305
C     7.78999996   8.75000000  50.89000320
C     7.50999975   8.11999989  49.65000153
C     8.50000000   8.01999950  48.69999695
C     9.84000015   8.30999947  49.08000183
C    13.90999985   9.30999947  50.10000229
C    14.68000031   8.78999996  49.02999878
C    16.06999969   8.75000000  48.99000168
C     6.06999969   7.72000027  49.40000153
H     5.62736416   8.28400421  48.57898331
H    10.76000023   7.73999977  47.27000427
H    11.42000008  10.03000069  51.59000015
H     9.19999981   9.39999962  52.31999969
H     6.91999960   8.90999985  51.52999878
H     8.23999977   7.68000031  47.70999908
H    16.57999992   8.36999989  48.11000061
H     5.51000023   7.79999971  50.34000015
H     6.15000010   6.63999987  49.19000244
