96

S    17.29999924   9.80000019  58.68999863
C    19.97999954  10.14000034  57.78999710
C    18.71000099   9.63000011  57.62000275
C    18.34000015   9.02000046  56.38000107
C    19.34999847   8.67999935  55.50000000
C    20.68000031   9.11999989  55.61000061
C    21.76000214   8.85999966  54.72000122
C    23.03999901   9.27999973  54.97000122
C    23.29000092  10.07999992  56.11999893
C    22.27000046  10.43000031  56.97000122
C    20.95999908   9.88000011  56.79999924
C    16.90000153   8.78000069  56.25000000
C    16.21000099   9.19000053  57.42000198
C    14.82999992   9.09000015  57.51999664
C    24.67000008  10.57999992  56.45000076
H    25.11137009   9.98201561  57.24731445
H    20.20999908  10.78999996  58.61999893
H    19.06999969   8.03999996  54.65999985
H    21.45999908   8.40999985  53.76999664
H    23.88000107   9.15999985  54.29000092
H    22.46999931  11.03000069  57.85999680
H    14.32000065   9.57999992  58.34999847
H    25.30999947  10.39000034  55.58000183
H    24.79999924  11.65999985  56.63000107
S    13.68999958   7.82000017  53.99000168
C    10.98000050   7.88000011  54.58000183
C    12.25000000   8.25000000  54.93999863
C    12.64000034   8.69000053  56.24000168
C    11.61999893   8.89999962  57.15000153
C    10.27999973   8.53999996  56.86999893
C     9.21000004   8.60999966  57.81000137
C     7.99000025   8.05999947  57.48000336
C     7.69000006   7.55000019  56.18999863
C     8.64000034   7.63999987  55.20000076
C     9.96000004   8.03999996  55.56000137
C    14.09000015   8.69999981  56.39999771
C    14.84000015   8.25000000  55.27999878
C    16.21999931   8.27000046  55.13999939
C     6.32000017   7.02000046  55.86000061
H     5.75147152   7.65959454  55.18487549
H    10.62000084   7.50999975  53.61999893
H    11.97000027   9.26999950  58.11000061
H     9.42000008   9.15999985  58.73000336
H     7.25000000   7.88999987  58.25000000
H     8.47000027   7.25000000  54.19000244
H    16.79000092   7.92999983  54.27999878
H     5.86000013   6.67999983  56.79999924
H     6.48999977   6.07999992  55.31999969
S    17.27000046  10.39000034  52.70000076
C    20.03000069  10.39000034  52.06999969
C    18.72999954  10.06000042  51.73999786
C    18.38000107   9.46000004  50.48999786
C    19.40000153   9.25000000  49.59000015
C    20.72999954   9.59999943  49.91000366
C    21.78999901   9.52999973  48.95999908
C    23.09000015   9.88000011  49.22999954
C    23.39999962  10.47000027  50.47999954
C    22.42000198  10.65999985  51.43000031
C    21.09000015  10.24000072  51.14999771
C    16.94000053   9.36999989  50.30000305
C    16.18999863   9.81999969  51.40999603
C    14.80999947   9.98000050  51.40999603
C    24.84000015  10.82999992  50.76000214
H    25.30805206  10.24848080  51.55427170
H    20.39999962  10.85999966  52.97999954
H    19.11000061   8.82999992  48.62999725
H    21.56999969   9.02000046  48.02000046
H    23.82999802   9.68000031  48.46000290
H    22.67000008  11.10999966  52.38999939
H    14.32000065  10.27999973  52.34000397
H    25.35000038  10.72999954  49.79999924
H    24.89000130  11.85999966  51.14999771
S    13.76999950   8.40999985  47.88999939
C    11.05000019   8.14999962  48.67000198
C    12.34000015   8.53999996  48.94000244
C    12.65999985   9.13999939  50.20000076
C    11.67000008   9.31999969  51.13999939
C    10.31999969   9.02000046  50.84000015
C     9.19000053   9.28999996  51.66999817
C     7.97999954   8.67999935  51.46999741
C     7.73000002   8.00000000  50.25000000
C     8.69999981   7.88000011  49.27999878
C    10.01999950   8.28999996  49.62999725
C    14.07999992   9.44999981  50.34000015
C    14.80000019   8.94999981  49.22999954
C    16.18000031   8.82999992  49.25000000
C     6.32000017   7.57000017  49.89999771
H     5.82305527   8.17343235  49.14038086
H    10.75000000   7.69000006  47.72999573
H    11.85999966   9.72999954  52.12999725
H     9.30999947   9.78999996  52.63000107
H     7.23000002   8.80999947  52.23999786
H     8.52000046   7.39000034  48.33000183
H    16.53000069   8.21000004  48.43000031
H     5.72000027   7.60999966  50.81999969
H     6.28000021   6.51000023  49.62999725
