96

S    16.46999931   9.77000046  58.83999634
C    19.13999939   9.63999939  58.18000031
C    17.85000038   9.30999947  57.83000183
C    17.47999954   8.69000053  56.59000015
C    18.48999977   8.30000019  55.72999954
C    19.82999992   8.60999966  56.04999924
C    20.94000053   8.40999985  55.18000031
C    22.21999931   8.86999989  55.44000244
C    22.47999954   9.59999943  56.63000107
C    21.47000122   9.81000042  57.52999878
C    20.15999985   9.34000015  57.23999786
C    16.03000069   8.61999989  56.43000031
C    15.39000034   9.11999989  57.58999634
C    14.01999950   9.35999966  57.63000107
C    23.90000153  10.01000023  56.97999954
H    24.34298706   9.33122826  57.70878601
H    19.36000061  10.19000053  59.09000015
H    18.12999916   7.72000027  54.88999939
H    20.89999962   7.96000004  54.19000244
H    23.02000046   8.56999969  54.78000259
H    21.67000008  10.32999992  58.46000290
H    13.55000019   9.72999954  58.54000092
H    24.56999969  10.06000042  56.11000061
H    23.77000046  11.05999947  57.29000092
S    12.84000015   7.95000029  54.01000214
C    10.18000031   8.05000019  54.68999863
C    11.47999954   8.31999969  55.07999802
C    11.84000015   8.85000038  56.36000061
C    10.80999947   9.01000023  57.27000427
C     9.47000027   8.69000053  56.95000076
C     8.46000004   8.73999977  57.95999908
C     7.13999987   8.48999977  57.63999939
C     6.80999994   8.03999996  56.33999634
C     7.76999998   7.97999954  55.34999847
C     9.13999939   8.27000046  55.61999893
C    13.27999973   8.97999954  56.50000000
C    13.89999962   8.40999985  55.35999680
C    15.26000023   8.13000011  55.37000275
C     5.42999983   7.46999979  56.07999802
H     4.99724150   8.05883503  55.27123642
H    10.03000069   7.59000015  53.72000122
H    11.03000069   9.36999989  58.27000046
H     8.69999981   9.01000023  58.97999573
H     6.39999962   8.28999996  58.40999985
H     7.49000025   7.63000011  54.36000061
H    15.75000000   7.59999990  54.55999756
H     4.74000025   7.59999990  56.91999817
H     5.65999985   6.40999985  55.94999695
S    13.50999928   6.07999992  50.97999954
C    10.82999992   5.31000042  51.40999603
C    12.15000057   5.28999996  51.79999924
C    12.61999989   4.67000008  53.00000000
C    11.64999962   4.19000006  53.87000275
C    10.27999973   4.21999979  53.50999832
C     9.23999977   3.72000003  54.33000183
C     7.90000010   3.76999998  54.01000214
C     7.51999950   4.39000034  52.78999710
C     8.46000004   4.94000006  51.95000076
C     9.82999992   4.72000027  52.22999954
C    14.04000092   4.75000000  53.30999756
C    14.60000038   5.51999998  52.25999832
C    15.98000050   5.65000010  52.19999695
C     6.05000019   4.69999981  52.63000107
H     5.52378750   4.24489689  51.79090500
H    10.62999916   5.91000032  50.52999878
H    11.92000008   3.78999996  54.84000397
H     9.55999947   3.33999991  55.30000305
H     7.17000008   3.38000011  54.71000290
H     8.14999962   5.69000006  51.23000336
H    16.46999931   6.01000023  51.29000092
H     5.59000015   4.44999981  53.60000229
H     5.96000004   5.78999996  52.70000076
S    17.22999954   4.26000023  55.72999954
C    19.88999939   4.69999981  55.15999603
C    18.57999992   4.84000015  54.73999786
C    18.18000031   5.44000053  53.50999832
C    19.18000031   6.05000019  52.77000046
C    20.55000114   5.86000013  53.09000015
C    21.64999962   6.26999950  52.29000092
C    22.96999931   5.96000004  52.49000168
C    23.29000092   5.18000031  53.62999725
C    22.27999878   4.79999971  54.48999786
C    20.90999985   5.12000036  54.27000046
C    16.73999977   5.33999968  53.33000183
C    16.10999870   4.72000027  54.43999863
C    14.78000069   4.30000019  54.40999985
C    24.71999931   4.94000006  54.08000183
H    25.10592842   5.71900272  54.73750687
H    20.19000053   4.21000004  56.07999802
H    18.96000099   6.60000038  51.86000061
H    21.44000053   6.88000011  51.40999603
H    23.75000000   6.15999985  51.76000214
H    22.44999886   4.13999987  55.34000015
H    14.32999992   3.65000010  55.13999939
H    25.29000092   4.88999987  53.13999939
H    24.77000046   3.96000004  54.56999969
