96

S    16.75000000   9.61999989  58.77999878
C    19.43000031   9.35000038  58.18000031
C    18.12999916   9.17000008  57.76000214
C    17.80999947   8.65999985  56.45999908
C    18.79999924   8.38999939  55.54000092
C    20.13000107   8.73000050  55.86000061
C    21.19999886   8.67000008  54.92000198
C    22.49000168   9.02999973  55.22999573
C    22.76000023   9.47000027  56.55000305
C    21.73999977   9.68000031  57.44999695
C    20.43000031   9.18000031  57.18999863
C    16.36000061   8.65999985  56.27999878
C    15.70000076   9.15999985  57.43000031
C    14.32000065   9.31999969  57.47000122
C    24.11000061  10.06000042  56.90000153
H    24.53102875   9.59615517  57.79201126
H    19.70000076   9.80000019  59.13000107
H    18.59000015   8.05000019  54.52000046
H    20.90999985   8.56000042  53.88000107
H    23.25000000   9.03999996  54.45000076
H    21.98999786  10.21000004  58.36000061
H    13.83999920   9.55999947  58.40999985
H    24.82000160   9.86999989  56.07999802
H    24.13000107  11.16000080  56.95000076
S    13.00000000   7.95000029  54.01000214
C    10.40999985   7.96999979  54.79999924
C    11.68000031   8.38000011  55.13000107
C    12.15000057   8.82999992  56.39999771
C    11.18999958   9.21000004  57.31999969
C     9.88000011   8.71999931  57.11000061
C     8.76999950   8.92000008  57.97999954
C     7.46000004   8.69000053  57.63999939
C     7.07999992   8.11999989  56.39999771
C     8.11999989   7.82999992  55.54000092
C     9.47000027   8.15999985  55.84999847
C    13.60000038   8.93000031  56.32999802
C    14.25000000   8.48999977  55.14999771
C    15.64000034   8.38000011  55.11000061
C     5.65000010   7.68000031  56.17000198
H     5.22330570   7.99290895  55.21704865
H    10.06999969   7.50000000  53.88000107
H    11.39999962   9.75000000  58.23999786
H     8.92000008   9.48999977  58.88999939
H     6.69000053   8.97999954  58.34999847
H     8.05999947   7.40000010  54.54999924
H    16.13000107   8.09000015  54.20000076
H     5.00999975   8.01999950  56.98999786
H     5.68000031   6.57999992  56.16000366
S    17.54999924  10.06000042  52.71999741
C    20.29000092   9.94000053  51.93999863
C    18.96000099   9.72000027  51.69000244
C    18.53000069   9.15000057  50.45000076
C    19.48999977   8.69000053  49.58000183
C    20.84000015   9.10000038  49.69999695
C    21.84000015   8.76999950  48.73000336
C    23.16999817   9.06999969  48.88999939
C    23.51000023   9.75000000  50.08999634
C    22.60000038  10.14999962  51.04000092
C    21.21000099   9.85000038  50.86000061
C    17.07999992   9.15000057  50.27000046
C    16.42000008   9.72999954  51.38999939
C    15.03999901   9.75000000  51.55000305
C    24.96999931  10.01999950  50.38000107
H    25.29084778   9.69915104  51.37106705
H    20.71000099  10.31000042  52.87000275
H    19.18000031   8.19000053  48.66000366
H    21.42999840   8.25000000  47.87000275
H    23.88999939   8.51000023  48.29000092
H    22.88000107  10.57999992  51.98999786
H    14.60000038  10.03000069  52.50000000
H    25.53999901   9.47000027  49.61999893
H    25.05000114  11.10999966  50.26000214
S    13.81999969   8.55000019  47.95000076
C    11.10999966   8.64000034  48.64999771
C    12.42000008   8.89000034  48.97999573
C    12.81000042   9.35000038  50.27999878
C    11.84999943   9.52999973  51.25999832
C    10.50000000   9.23999977  50.97000122
C     9.48999977   9.46000004  51.95000076
C     8.17000008   9.13000011  51.72000122
C     7.76999998   8.69999981  50.43000031
C     8.71999931   8.64000034  49.43000031
C    10.11999989   8.82000065  49.65000153
C    14.26000023   9.39000034  50.44000244
C    14.93000031   8.92000008  49.29000092
C    16.29999924   8.69000053  49.20000076
C     6.44000006   8.03999996  50.14999771
H     5.89795923   8.51071930  49.32980728
H    10.88000107   8.36000061  47.63000107
H    12.18000031   9.90999985  52.22000122
H     9.81000042   9.63000011  52.97999954
H     7.46000004   9.04999924  52.54000092
H     8.53999996   8.14999962  48.47999954
H    16.63999939   8.15999985  48.31999969
H     5.79999971   8.01000023  51.04000092
H     6.57999992   6.97000027  49.94999695
