96

S    17.01000023   9.27999973  58.67000198
C    19.68000031   9.56999969  57.85999680
C    18.43000031   9.06999969  57.62000275
C    18.06999969   8.48999977  56.36000061
C    19.04999924   8.39999962  55.38000107
C    20.38999939   8.76999950  55.63999939
C    21.51000023   8.47000027  54.80999756
C    22.79999924   8.84000015  55.11000061
C    23.05999947   9.55999947  56.30000305
C    22.03000069   9.84000015  57.15999985
C    20.69999886   9.43000031  56.88000107
C    16.63999939   8.25000000  56.25000000
C    15.93000031   8.73999977  57.36999893
C    14.55000019   8.73999977  57.52999878
C    24.50000000   9.92000008  56.62000275
H    24.87018204   9.29354000  57.43155289
H    19.98999977  10.11000061  58.75999832
H    18.78999901   7.95000029  54.43000031
H    21.30000114   7.97999954  53.86000061
H    23.57999992   8.60999966  54.38999939
H    22.23999977  10.32999992  58.11000061
H    14.02999973   9.02999973  58.43999863
H    25.10999870   9.92000008  55.70999908
H    24.36000061  10.93000031  57.02000046
S    13.38999939   7.39000034  54.01000214
C    10.67999935   7.32999992  54.72999954
C    11.97000027   7.69000006  55.04000092
C    12.34000015   8.23999977  56.30000305
C    11.36000061   8.34999943  57.27000427
C    10.01999950   8.03999996  56.95000076
C     8.98999977   8.09000015  57.93000031
C     7.69999981   7.65999985  57.71999741
C     7.31999969   7.21000004  56.43000031
C     8.26000023   7.26000023  55.41999817
C     9.61999989   7.59999990  55.63999939
C    13.78999901   8.32999992  56.42000198
C    14.52000046   7.92000008  55.27999878
C    15.88999939   7.76000023  55.17000198
C     5.88999987   6.76000023  56.25000000
H     5.51245928   7.28713226  55.37381744
H    10.53999996   6.78999996  53.80000305
H    11.68000031   8.51000023  58.29999924
H     9.27999973   8.38000011  58.94000244
H     6.97000027   7.60999966  58.53000259
H     8.01999950   6.75000000  54.48999786
H    16.36999893   7.28999996  54.31999969
H     5.32999992   6.98000002  57.15999985
H     5.84000015   5.66999960  56.10000229
S    13.47000027   5.42999983  50.86999893
C    10.88000107   4.85000038  51.51000214
C    12.18999958   4.76999998  51.91999817
C    12.63000011   4.25000000  53.18000031
C    11.65999985   3.77999997  54.05000305
C    10.31000042   3.78999996  53.64999771
C     9.27999973   3.40000010  54.55999756
C     7.96000004   3.33999991  54.19000244
C     7.59000015   3.73000002  52.87000275
C     8.52999973   4.19999981  51.98999786
C     9.89999962   4.32000017  52.37999725
C    14.06999969   4.35999966  53.27000046
C    14.63999939   4.98000002  52.12999725
C    16.00000000   5.28999996  52.08000183
C     6.10000038   3.93000007  52.65999603
H     5.73617601   3.90859842  51.63273239
H    10.62000084   5.36999989  50.58000183
H    11.96000004   3.38000011  55.01999664
H     9.59000015   3.35000014  55.59999847
H     7.26000023   3.23000002  55.00999832
H     8.28999996   4.61000013  51.00999832
H    16.39000130   5.91000032  51.27999878
H     5.66999960   3.12999988  53.27000046
H     5.72000027   4.81999969  53.18000031
S    17.34000015   3.96000004  55.65000153
C    19.95000076   4.61000013  54.99000168
C    18.60999870   4.73000002  54.68000031
C    18.18000031   5.33999968  53.46000290
C    19.07999992   6.00000000  52.64999771
C    20.45999908   5.79999971  52.90000153
C    21.48999977   6.34999990  52.09000015
C    22.82999992   6.11999989  52.31999969
C    23.22000122   5.36999989  53.47000122
C    22.29000092   4.82999992  54.31999969
C    20.90999985   5.09999990  54.08000183
C    16.77000046   5.03999996  53.20999908
C    16.25000000   4.28999996  54.29999924
C    14.89999962   3.96000004  54.33000183
C    24.69000053   5.13999987  53.72000122
H    25.08128738   5.53128719  54.65909195
H    20.22999954   4.02999973  55.86999893
H    18.71999931   6.40999985  51.70999908
H    21.11999893   6.93000031  51.25000000
H    23.52000046   6.56000042  51.62000275
H    22.60000038   4.19999981  55.14999771
H    14.34999943   3.45999980  55.12000275
H    25.27000046   5.51000023  52.85999680
H    24.86999893   4.05999994  53.73000336
