96

S    17.01000023   9.89999962  58.50000000
C    19.71999931   9.76000023  57.87000275
C    18.42000008   9.55000019  57.48000336
C    18.09000015   8.96000004  56.22000122
C    19.07999992   8.67000008  55.30000305
C    20.43999863   8.88000011  55.63000107
C    21.54999924   8.71999931  54.73999786
C    22.86000061   8.97999954  55.06999969
C    23.08000183   9.61000061  56.31999969
C    22.07999992   9.76000023  57.25000000
C    20.72999954   9.44999981  56.90999985
C    16.65999985   8.76999950  56.09000397
C    15.95999908   9.19999981  57.23999786
C    14.56999969   9.23999977  57.29999924
C    24.47000122   9.92000008  56.83000183
H    24.87661743   9.15670109  57.49343109
H    19.78000069  10.21000004  58.85000229
H    18.78000069   8.30000019  54.31999969
H    21.30000114   8.48999977  53.70999908
H    23.74000168   8.97000027  54.43000031
H    22.42000198  10.08999920  58.22000122
H    14.13000011   9.52999973  58.25000000
H    25.13999939  10.14999962  55.98999786
H    24.41999817  10.82999992  57.43999863
S    13.43000031   7.82000017  53.72000122
C    10.78999996   7.53000021  54.51000214
C    12.05999947   7.94000053  54.84000397
C    12.43000031   8.55000019  56.09000397
C    11.40999985   8.73000050  57.00000000
C    10.07999992   8.32999992  56.72999954
C     9.03999996   8.57999992  57.68000031
C     7.77999973   8.10000038  57.43000031
C     7.44999981   7.53999996  56.17000198
C     8.43000031   7.30999994  55.22999573
C     9.77000046   7.72000027  55.47000122
C    13.85000038   8.84000015  56.17000198
C    14.52000046   8.38000011  55.00999832
C    15.90999985   8.34000015  54.99000168
C     6.09000015   6.91999960  55.90999985
H     5.66443586   7.49451208  55.08724213
H    10.53999996   6.89000034  53.67000198
H    11.64000034   9.15000057  57.97999954
H     9.30000019   9.18000031  58.54999924
H     7.04999971   8.27000046  58.22000122
H     8.13000011   6.85999966  54.27999878
H    16.39999962   8.01999950  54.06999969
H     5.58000040   7.00999975  56.86999893
H     6.15000010   5.86999989  55.61000061
S    13.76000023   5.55999994  50.81999969
C    11.06999969   5.07999992  51.40999603
C    12.38999939   5.03000021  51.81000137
C    12.76999950   4.44999981  53.06000137
C    11.82000065   3.95000005  53.93000031
C    10.46000004   4.01999998  53.55999756
C     9.44000053   3.58999991  54.45999908
C     8.13000011   3.68999982  54.05000305
C     7.75000000   4.23000002  52.80000305
C     8.71000004   4.63999987  51.90000153
C    10.07999992   4.53999996  52.27000427
C    14.21000004   4.50000000  53.27000046
C    14.81999969   5.21000004  52.21000290
C    16.13999939   5.63000011  52.23999786
C     6.25999975   4.23999977  52.55000305
H     6.00427675   3.42310715  51.87517548
H    10.88999939   5.51000023  50.43000031
H    12.09000015   3.47000003  54.86999893
H     9.64999962   2.93000007  55.28999710
H     7.34000015   3.30999994  54.69999695
H     8.43999958   4.99000025  50.90999985
H    16.56999969   5.98999977  51.31000137
H     5.71000004   4.19000006  53.48999786
H     6.05999994   5.18000031  52.02999878
S    17.38000107   4.17000008  55.76000214
C    20.03999901   4.75000000  55.27999878
C    18.73999977   4.88000011  54.85000229
C    18.31999969   5.50000000  53.62999725
C    19.32999992   5.93999958  52.80000305
C    20.69000053   5.82999992  53.18000031
C    21.63999939   6.21000004  52.18999863
C    22.96999931   5.97000027  52.44999695
C    23.32999992   5.40000010  53.69999695
C    22.44999886   5.18000031  54.73999786
C    21.05999947   5.28999996  54.45999908
C    16.87999916   5.38999987  53.40000153
C    16.27000046   4.67999983  54.47000122
C    14.93999958   4.28999996  54.43999863
C    24.79000092   5.05000019  53.86000061
H    25.18967247   5.40684986  54.80922318
H    20.32999992   4.23999977  56.19999695
H    19.19999886   6.24000025  51.76000214
H    21.25999832   6.58999968  51.24000168
H    23.72999954   6.23000050  51.72000122
H    22.73999977   4.73000002  55.68000031
H    14.46000004   3.88000011  55.33000183
H    25.20999908   5.56999969  52.98999786
H    24.94999886   3.97000027  53.76999664
