96

S    16.79999924   9.48999977  58.89999771
C    19.48999977   9.80000019  58.22000122
C    18.22999954   9.38000011  57.85999680
C    17.94999886   8.80999947  56.58000183
C    19.01000023   8.69999981  55.70000076
C    20.31999969   9.19000053  55.93999863
C    21.40000153   9.15000057  55.01999664
C    22.65999985   9.55000019  55.38000107
C    22.93999863   9.84000015  56.73999786
C    21.88999939   9.98000050  57.61000061
C    20.53999901   9.68999958  57.28000259
C    16.52000046   8.53999996  56.42000198
C    15.77999973   9.01000023  57.54000092
C    14.40000057   9.09000015  57.44999695
C    24.33000183  10.22999954  57.19999695
H    24.78366661   9.59203148  57.95847321
H    19.65999985  10.19999981  59.22000122
H    18.85000038   8.10999966  54.79999924
H    21.21999931   8.85000038  53.99000168
H    23.45000076   9.68999958  54.64000320
H    22.14999962  10.31000042  58.61000061
H    13.78000069   9.44999981  58.27000046
H    25.03999901  10.22999954  56.37000275
H    24.20999908  11.28999901  57.44999695
S    13.43999958   7.65999985  53.90999603
C    10.70000076   7.49000025  54.52000046
C    11.97000027   7.88999987  54.86999893
C    12.30000019   8.34000015  56.18999863
C    11.23000050   8.43000031  57.08000183
C     9.89000034   8.23999977  56.68000031
C     8.82000065   8.36999989  57.62000275
C     7.50999975   8.13000011  57.27000427
C     7.26000023   7.50000000  56.03000259
C     8.23999977   7.40000010  55.06999969
C     9.59000015   7.76000023  55.35999680
C    13.73000050   8.56000042  56.33999634
C    14.51000023   8.21000004  55.20999908
C    15.90000057   8.14000034  55.24000168
C     5.84000015   7.03000021  55.83000183
H     5.37179995   7.54785824  54.99291611
H    10.31999969   6.98999977  53.62999725
H    11.47999954   8.60999966  58.11999893
H     9.01000023   8.73000050  58.61999893
H     6.60000038   8.31999969  57.83000183
H     7.99000025   6.85999966  54.16999817
H    16.42000008   7.90000010  54.31000137
H     5.25000000   7.13000011  56.75000000
H     5.78000021   5.95000029  55.61000061
S    13.47000027   5.92999983  50.72999954
C    10.80999947   5.33999968  51.38999939
C    12.15000057   5.23000002  51.69000244
C    12.64000034   4.46999979  52.80000305
C    11.76000023   3.82999992  53.64999771
C    10.36999893   3.97000027  53.41999817
C     9.44000053   3.47000003  54.38000107
C     8.09000015   3.56999993  54.13999939
C     7.63000011   4.19999981  52.95999908
C     8.51000023   4.71000004  52.02999878
C     9.92000008   4.63000011  52.22999954
C    14.07999992   4.61999989  52.94000244
C    14.67000008   5.40999985  51.93000031
C    15.97000027   5.88000011  52.05999756
C     6.12999964   4.18000031  52.74000168
H     5.83806515   4.26544476  51.69330597
H    10.51000023   5.98999977  50.56999969
H    12.17000008   3.40000010  54.56999969
H     9.81999969   3.14000010  55.34999847
H     7.40999985   3.19000006  54.89999771
H     8.17000008   5.38999987  51.25999832
H    16.43000031   6.58999968  51.37000275
H     5.69000006   3.28999996  53.20999908
H     5.75999975   5.00999975  53.34000015
S    17.27000046   4.05999994  55.35999680
C    19.90999985   5.09000015  55.00999832
C    18.59000015   5.00999975  54.65000153
C    18.13999939   5.63000011  53.43999863
C    19.03000069   6.26999950  52.60000229
C    20.42000008   6.28000021  52.85999680
C    21.38999939   6.88000011  52.00000000
C    22.72999954   6.81999969  52.29999924
C    23.15999985   6.24000025  53.52000427
C    22.22999954   5.61999989  54.31000137
C    20.82999992   5.58000040  54.05000305
C    16.72000122   5.45000029  53.16999817
C    16.10000038   4.63999987  54.15000153
C    14.78000069   4.21999979  54.09000015
C    24.59000015   6.43000031  53.96999741
H    25.00952911   5.60516262  54.54596710
H    20.25000000   4.80999994  56.00999832
H    18.75000000   6.61999989  51.60999680
H    20.93000031   7.40000010  51.16000366
H    23.38999939   7.50000000  51.77000046
H    22.53999901   5.19000006  55.26000214
H    14.27999973   3.58999991  54.82999802
H    24.59000015   7.27999973  54.66999817
H    25.17000008   6.65000010  53.06000137
