96

S    17.31999969   9.63999939  58.85000229
C    20.06999969   9.55000019  58.15000153
C    18.75000000   9.30999947  57.85999680
C    18.39999962   8.89000034  56.52999878
C    19.37999916   8.69000053  55.56999969
C    20.72000122   9.07999992  55.79999924
C    21.68999863   9.04999924  54.75000000
C    23.00000000   9.30000019  55.07999802
C    23.36000061   9.63999939  56.40999603
C    22.39999962   9.90999985  57.36000061
C    21.04000092   9.55999947  57.11999893
C    16.95999908   8.76999950  56.39999771
C    16.21999931   9.13999939  57.55000305
C    14.84000015   9.28999996  57.52999878
C    24.79999924  10.01000023  56.69000244
H    25.16055489   9.70600128  57.67269516
H    20.55999947   9.81999969  59.08000183
H    19.17000008   8.36999989  54.55999756
H    21.34000015   9.11999989  53.73000336
H    23.82999802   9.43000031  54.38999939
H    22.63000107  10.25000000  58.36000061
H    14.32999992   9.68000031  58.40000153
H    25.48999977   9.59000015  55.96000290
H    24.89000130  11.10000038  56.60999680
S    13.86000061   8.36999989  53.81999969
C    11.06999969   8.36999989  54.34999847
C    12.36999989   8.59000015  54.75999832
C    12.72999954   9.02000046  56.07999802
C    11.65999985   9.35999966  56.88999939
C    10.31000042   9.06000042  56.56999969
C     9.30999947   9.13999939  57.57999802
C     8.01000023   8.85999966  57.25999832
C     7.71000004   8.57999992  55.90000153
C     8.64000034   8.36000061  54.91000366
C    10.01000023   8.55000019  55.27000046
C    14.15999985   8.97000027  56.35000229
C    14.92000008   8.55000019  55.22999573
C    16.28000069   8.27000046  55.27999878
C     6.21999979   8.52000046  55.59999847
H     5.89110470   7.73351192  54.92076111
H    10.95000076   7.96000004  53.34999847
H    11.80999947   9.85999966  57.84000015
H     9.67000008   9.34000015  58.59000397
H     7.22000027   8.89000034  58.00000000
H     8.36000061   8.23999977  53.87000275
H    16.84000015   7.95000029  54.40000153
H     6.17000008   9.48999977  55.07999802
H     5.59000015   8.51000023  56.50000000
S    17.19000053   9.94000053  52.56000137
C    19.93999863  10.15999985  51.93000031
C    18.64999962   9.82999992  51.56999969
C    18.30999947   9.30000019  50.27999878
C    19.36000061   9.07999992  49.40999985
C    20.69000053   9.44999981  49.68999863
C    21.80999947   9.26000023  48.81999969
C    23.09000015   9.55000019  49.20999908
C    23.38000107  10.06000042  50.51000214
C    22.34000015  10.15999985  51.40999603
C    20.98999977   9.90999985  51.02000427
C    16.87000084   9.15000057  50.08999634
C    16.10000038   9.52000046  51.22000122
C    14.75000000   9.82999992  51.17000198
C    24.73999977  10.46000004  51.04000092
H    25.33986855   9.59590530  51.32565308
H    20.10000038  10.53999996  52.93000031
H    19.17000008   8.56999969  48.46000290
H    21.60000038   8.85999966  47.84000015
H    23.80000114   9.23999977  48.44999695
H    22.50000000  10.47000027  52.43999863
H    14.19000053  10.21000004  52.01000214
H    25.35000038  10.98999977  50.30000305
H    24.54999924  11.10999966  51.90000153
S    13.73999977   8.46000004  47.56000137
C    11.02000046   8.47000027  48.16999817
C    12.30000019   8.82999992  48.52000427
C    12.60000038   9.39999962  49.79999924
C    11.54000092   9.55999947  50.68000031
C    10.21000004   9.22999954  50.33000183
C     9.13999939   9.27999973  51.27999878
C     7.88999987   8.82000065  50.90999985
C     7.59000015   8.32999992  49.61999893
C     8.60000038   8.27999973  48.68999863
C     9.92000008   8.69999981  49.02999878
C    14.04000092   9.48000050  50.00999832
C    14.77000046   9.03999996  48.88000107
C    16.13999939   8.82999992  48.94000244
C     6.23000050   7.73999977  49.29999924
H     5.72495890   8.43709850  48.63135529
H    10.80000019   7.94000053  47.25000000
H    11.73999977   9.84000015  51.70999908
H     9.34000015   9.61999989  52.29000092
H     7.13000011   8.86999989  51.68000031
H     8.46000004   7.69999981  47.77000046
H    16.72999954   8.53999996  48.06999969
H     5.55999994   7.67000008  50.17000198
H     6.25999975   6.72999954  48.87000275
