96

S    16.68000031  10.01000023  58.41999817
C    19.44000053   9.88000011  57.77999878
C    18.12000084   9.63000011  57.44999695
C    17.70000076   8.88000011  56.30000305
C    18.68999863   8.50000000  55.40999985
C    20.05000114   8.80999947  55.65000153
C    20.97999954   8.59000015  54.59999847
C    22.27999878   8.86999989  54.95999908
C    22.72000122   9.55000019  56.12999725
C    21.77999878   9.85000038  57.09000015
C    20.43999863   9.40999985  56.88999939
C    16.26000023   8.69999981  56.20999908
C    15.52999973   9.34000015  57.23999786
C    14.14000034   9.32999992  57.29000092
C    24.15999985   9.98000050  56.31999969
H    24.53076744   9.47376060  57.21126556
H    19.68000031  10.71000004  58.43999863
H    18.37000084   8.11999989  54.45000076
H    20.59999847   8.23000050  53.64999771
H    23.02999878   8.71000004  54.19000244
H    22.04000092  10.42000008  57.97000122
H    13.63000011   9.72000027  58.15999985
H    24.77000046   9.68000031  55.47000122
H    24.14999962  11.06999969  56.37000275
S    13.07000065   7.57999992  53.90999603
C    10.34000015   7.82000017  54.43000031
C    11.63000011   7.97999954  54.86000061
C    11.95000076   8.64999962  56.09000397
C    10.92000008   8.80999947  56.98999786
C     9.59000015   8.47000027  56.65000153
C     8.52000046   8.63000011  57.56999969
C     7.25000000   8.23000050  57.22999954
C     6.94000006   7.76999998  55.90999985
C     7.92000008   7.69000006  54.94999695
C     9.25000000   8.02999973  55.31999969
C    13.40000057   8.78000069  56.24000168
C    14.14000034   8.21000004  55.17000198
C    15.52999973   8.13000011  55.15999603
C     5.55000019   7.42000008  55.45999908
H     5.16653633   8.10881329  54.70727539
H    10.03000069   7.36000013  53.50000000
H    11.13999939   9.13999939  58.00000000
H     8.69000053   9.06999969  58.54999924
H     6.48000002   8.31999969  57.98999786
H     7.77999973   7.09999990  54.05000305
H    16.01000023   8.01000023  54.19000244
H     4.88999987   7.60999966  56.31999969
H     5.45000029   6.39999962  55.08999634
S    13.50999928   5.69000006  50.73999786
C    10.90000057   5.00000000  51.33999634
C    12.23000050   4.79999971  51.59000015
C    12.71000004   4.18000031  52.78999710
C    11.80999947   3.68000007  53.72000122
C    10.42000008   3.86999989  53.50999832
C     9.46000004   3.42999983  54.45999908
C     8.11999989   3.67000008  54.25000000
C     7.73000002   4.55000019  53.20999908
C     8.64000034   5.05000019  52.29999924
C     9.98999977   4.61999989  52.36000061
C    14.11000061   4.46000004  53.06999969
C    14.65999985   5.19999981  51.98999786
C    15.98999977   5.59999990  51.95999908
C     6.30000019   5.03999996  53.11999893
H     5.76569748   4.58406162  52.28648758
H    10.52000046   5.58000040  50.50000000
H    12.13000107   3.42000008  54.72999954
H     9.80000019   2.93000007  55.35999680
H     7.44999981   3.38000011  55.05000305
H     8.43000031   5.69999981  51.45000076
H    16.39000130   6.15999985  51.11999893
H     5.72000027   4.67000008  53.95999908
H     6.28999996   6.14000034  53.04000092
S    17.39999962   4.23999977  55.45000076
C    20.02000046   4.48999977  54.55999756
C    18.70000076   4.84000015  54.40000153
C    18.27000046   5.47999954  53.20000076
C    19.20999908   6.02999973  52.36000061
C    20.59000015   5.89999962  52.63000107
C    21.59000015   6.51999998  51.81999969
C    22.92000008   6.35999966  52.09000015
C    23.34000015   5.66999960  53.26000214
C    22.39999962   5.09000015  54.08000183
C    21.02000046   5.13999987  53.77999878
C    16.81999969   5.36000013  53.06000137
C    16.25000000   4.69000006  54.18000031
C    14.94999981   4.19999981  54.15000153
C    24.77999878   5.40999985  53.63999939
H    25.09165955   5.66499329  54.65288925
H    20.34000015   3.88000011  55.40000153
H    18.86000061   6.56000042  51.46999741
H    21.28000069   6.98999977  50.89000320
H    23.71000099   6.51000023  51.36000061
H    22.70000076   4.50000000  54.94999695
H    14.60000038   3.74000025  55.06999969
H    25.35000038   5.97000027  52.88999939
H    25.00000000   4.35999966  53.41999817
