96

S    17.13000107   9.30000019  58.68000031
C    19.81999969   9.22999954  57.90999985
C    18.51000023   8.88000011  57.64999771
C    18.17000008   8.28999996  56.38999939
C    19.12999916   8.05999947  55.41999817
C    20.46999931   8.39999962  55.70000076
C    21.61000061   8.22000027  54.86000061
C    22.89999962   8.56999969  55.19000244
C    23.15999985   9.23999977  56.42000198
C    22.13000107   9.52999973  57.27000427
C    20.81999969   9.07999992  56.91999817
C    16.72999954   8.19999981  56.22000122
C    16.07999992   8.71999931  57.36999893
C    14.70000076   8.75000000  57.49000168
C    24.54999924   9.64999962  56.86000061
H    24.89234161   8.95105362  57.62313461
H    20.05000114   9.81999969  58.79000092
H    18.94000053   7.63000011  54.43999863
H    21.42000008   7.73000002  53.90999603
H    23.71000099   8.22000027  54.56999969
H    22.25000000  10.14000034  58.16999817
H    14.19000053   9.15999985  58.36000061
H    25.15000153   9.59000015  55.93999863
H    24.36000061  10.67999935  57.15999985
S    13.45000076   7.42000008  53.95999908
C    10.72000027   7.60999966  54.72999954
C    12.05000019   7.88999987  54.93999863
C    12.46999931   8.42000008  56.20999908
C    11.51999950   8.71000004  57.16999817
C    10.18000031   8.27000046  57.02000046
C     9.15999985   8.55000019  57.97000122
C     7.83999968   8.32999992  57.63999939
C     7.42999983   7.69000006  56.44000244
C     8.38000011   7.50000000  55.45999908
C     9.75000000   7.75000000  55.75000000
C    13.92000008   8.42000008  56.38000107
C    14.56999969   7.82000017  55.27000046
C    15.95000076   7.69999981  55.17000198
C     5.96000004   7.48000050  56.18000031
H     5.57592487   8.02766228  55.31938934
H    10.44999981   7.28999996  53.72000122
H    11.84000015   9.22000027  58.06999969
H     9.52999973   9.09000015  58.83999634
H     7.11999989   8.82000065  58.27999878
H     8.07999992   7.23999977  54.43999863
H    16.34000015   7.26000023  54.26000214
H     5.38000011   7.69000006  57.09000015
H     5.80999947   6.40999985  56.00000000
S    17.31999969   9.64999962  52.63999939
C    19.97999954   9.86999989  51.88000107
C    18.71000099   9.43000031  51.56000137
C    18.30999947   8.76999950  50.35999680
C    19.30999947   8.60000038  49.41999817
C    20.65000153   8.93999958  49.68999863
C    21.70000076   8.84000015  48.73000336
C    23.01000214   9.19000053  48.99000168
C    23.35000038   9.57999992  50.31000137
C    22.36999893   9.78999996  51.25000000
C    21.00000000   9.53999996  50.94999695
C    16.87000084   8.60000038  50.19000244
C    16.23999977   9.02999973  51.38000107
C    14.85000038   9.13000011  51.42000198
C    24.79000092   9.98999977  50.52000046
H    25.28830910   9.44897747  51.32441711
H    20.31999969  10.11000061  52.88000107
H    19.11999893   8.28999996  48.39000320
H    21.42999840   8.60000038  47.70999908
H    23.62999916   9.35000038  48.11999893
H    22.60999870  10.36000061  52.14000320
H    14.30999947   9.36999989  52.32999802
H    25.38999939   9.92999935  49.59999847
H    24.70000076  11.05000019  50.79999924
S    13.66000080   8.47999954  47.70000076
C    11.00999928   8.40999985  48.40000153
C    12.28999996   8.75000000  48.79000092
C    12.63000011   9.04999924  50.14999771
C    11.63000011   9.26999950  51.07999802
C    10.27999973   8.96000004  50.75000000
C     9.30999947   9.06999969  51.79000092
C     8.09000015   8.46000004  51.59000015
C     7.76999998   7.99000025  50.28999710
C     8.71999931   7.92999983  49.29000092
C    10.03000069   8.47000027  49.41999817
C    14.07999992   8.96000004  50.26000214
C    14.78000069   8.64999962  49.06999969
C    16.13999939   8.38000011  49.01000214
C     6.35999966   7.53000021  49.98000336
H     5.93349648   8.18397236  49.21940231
H    10.80999947   7.92000008  47.45999908
H    11.77000046   9.61000061  52.09999847
H     9.55000019   9.32999992  52.81000137
H     7.40999985   8.38000011  52.43000031
H     8.43999958   7.53999996  48.31999969
H    16.65999985   8.19999981  48.08000183
H     5.59000015   7.55999994  50.76000214
H     6.35999966   6.48999977  49.61999893
