96

S    16.75000000   9.85000038  58.76999664
C    19.52999878   9.56999969  58.27000046
C    18.22000122   9.34000015  57.91999817
C    17.88999939   8.92000008  56.59000015
C    18.90999985   8.64999962  55.70000076
C    20.27000046   8.90999985  56.00999832
C    21.35999870   8.80000019  55.10000229
C    22.65000153   9.06999969  55.47999954
C    22.98000145   9.39000034  56.83000183
C    21.93000031   9.63000011  57.69000244
C    20.58000183   9.36999989  57.34000397
C    16.46000099   8.89000034  56.33999634
C    15.69000053   9.26999950  57.47000122
C    14.29999924   9.32999992  57.44999695
C    24.38999939   9.78999996  57.18999863
H    24.94611359   9.01999664  57.72472382
H    19.80999947   9.86999989  59.27999878
H    18.75000000   8.31999969  54.68000031
H    21.18000031   8.48999977  54.06999969
H    23.47999954   9.03999996  54.78000259
H    22.06000137  10.05000019  58.68000031
H    13.78000069   9.72000027  58.31999969
H    24.92000198  10.10000038  56.27999878
H    24.28999901  10.70000076  57.80000305
S    13.27999973   8.31999969  53.82999802
C    10.52000046   8.09000015  54.41999817
C    11.79999924   8.40999985  54.80999756
C    12.10999966   8.89999962  56.11999893
C    11.11999989   9.02000046  57.06999969
C     9.77999973   8.82000065  56.66999817
C     8.65999985   9.02999973  57.52999878
C     7.35000038   8.76999950  57.18000031
C     7.11000013   8.27999973  55.87999725
C     8.14000034   8.06999969  54.99000168
C     9.48000050   8.39999962  55.33000183
C    13.55000019   9.02000046  56.31000137
C    14.35999966   8.67999935  55.19000244
C    15.72999954   8.46000004  55.22999573
C     5.69000006   7.88000011  55.54999924
H     5.37685013   8.33549118  54.61054993
H    10.25000000   7.57000017  53.50000000
H    11.44000053   9.51000023  57.98999786
H     8.93000031   9.36999989  58.52000427
H     6.53999996   8.69999981  57.90000153
H     7.95000029   7.65999985  54.00000000
H    16.36000061   8.10999966  54.40999985
H     5.05000019   8.17000008  56.38999939
H     5.66999960   6.80999994  55.28999710
S    13.88000011   5.86999989  50.96000290
C    11.19999981   5.38999987  51.65000153
C    12.53999901   5.31000042  51.97000122
C    12.98999977   4.77999973  53.22999954
C    12.07999992   4.32999992  54.16999817
C    10.71000004   4.34999990  53.82999802
C     9.70000076   3.75999975  54.64000320
C     8.34999943   3.86999989  54.38999939
C     7.95000029   4.57999992  53.22999954
C     8.85999966   5.13999987  52.36999893
C    10.25000000   4.94999981  52.61000061
C    14.40999985   4.98000002  53.43000031
C    15.01000023   5.59000015  52.29999924
C    16.34000015   6.00000000  52.32999802
C     6.48999977   4.84000015  52.95000076
H     6.09279823   4.38605547  52.04211044
H    10.85000038   6.05000019  50.86000061
H    12.36999989   3.91000009  55.13000107
H     9.94000053   3.40999985  55.65000153
H     7.57000017   3.61999989  55.11000061
H     8.69000053   5.78999996  51.51000214
H    16.65999985   6.67999983  51.53999710
H     5.91000032   4.56999969  53.83999634
H     6.34999990   5.92999983  52.83000183
S    17.72999954   4.61000013  55.79999924
C    20.42000008   5.03000021  55.02999878
C    19.07999992   5.19999981  54.80999756
C    18.55999947   5.75999975  53.60000229
C    19.47999954   6.14000034  52.63999939
C    20.86999893   5.97000027  52.85999680
C    21.80999947   6.48000002  51.91999817
C    23.15000153   6.53999996  52.22000122
C    23.67000198   6.00000000  53.43000031
C    22.79999924   5.49000025  54.36000061
C    21.40000153   5.46000004  54.09999847
C    17.11000061   5.68000031  53.44999695
C    16.52000046   5.03999996  54.56999969
C    15.19000053   4.61999989  54.54000092
C    25.10999870   6.17000008  53.86000061
H    25.37368011   5.59988308  54.75080872
H    20.81999969   4.56999969  55.93000031
H    19.10000038   6.34000015  51.63999939
H    21.45999908   7.07000017  51.07999802
H    23.71000099   7.17999983  51.53999710
H    23.09000015   5.26000023  55.38000107
H    14.68000031   4.28000021  55.44000244
H    25.27000046   7.25000000  53.99000168
H    25.84000015   5.78000021  53.13000107
