96

S    16.79999924   9.48999977  58.89999771
C    19.48999977   9.80000019  58.22000122
C    18.22999954   9.38000011  57.85999680
C    17.94999886   8.80999947  56.58000183
C    19.01000023   8.69999981  55.70000076
C    20.31999969   9.19000053  55.93999863
C    21.40000153   9.15000057  55.01999664
C    22.65999985   9.55000019  55.38000107
C    22.93999863   9.84000015  56.73999786
C    21.88999939   9.98000050  57.61000061
C    20.53999901   9.68999958  57.28000259
C    16.52000046   8.53999996  56.42000198
C    15.77999973   9.01000023  57.54000092
C    14.40000057   9.09000015  57.44999695
C    24.33000183  10.22999954  57.19999695
H    24.78366661   9.59203148  57.95847321
H    19.65999985  10.19999981  59.22000122
H    18.85000038   8.10999966  54.79999924
H    21.21999931   8.85000038  53.99000168
H    23.45000076   9.68999958  54.64000320
H    22.14999962  10.31000042  58.61000061
H    13.78000069   9.44999981  58.27000046
H    25.03999901  10.22999954  56.37000275
H    24.20999908  11.28999901  57.44999695
S    13.43999958   7.65999985  53.90999603
C    10.70000076   7.49000025  54.52000046
C    11.97000027   7.88999987  54.86999893
C    12.30000019   8.34000015  56.18999863
C    11.23000050   8.43000031  57.08000183
C     9.89000034   8.23999977  56.68000031
C     8.82000065   8.36999989  57.62000275
C     7.50999975   8.13000011  57.27000427
C     7.26000023   7.50000000  56.03000259
C     8.23999977   7.40000010  55.06999969
C     9.59000015   7.76000023  55.35999680
C    13.73000050   8.56000042  56.33999634
C    14.51000023   8.21000004  55.20999908
C    15.90000057   8.14000034  55.24000168
C     5.84000015   7.03000021  55.83000183
H     5.37179995   7.54785824  54.99291611
H    10.31999969   6.98999977  53.62999725
H    11.47999954   8.60999966  58.11999893
H     9.01000023   8.73000050  58.61999893
H     6.60000038   8.31999969  57.83000183
H     7.99000025   6.85999966  54.16999817
H    16.42000008   7.90000010  54.31000137
H     5.25000000   7.13000011  56.75000000
H     5.78000021   5.95000029  55.61000061
S    17.45000076   9.92999935  52.74000168
C    20.06000137  10.31000042  51.86999893
C    18.82999992   9.73999977  51.63000107
C    18.46999931   9.30000019  50.31999969
C    19.45000076   9.27999973  49.34999847
C    20.76999855   9.75000000  49.59000015
C    21.84000015   9.50000000  48.68999863
C    23.12999916   9.90999985  48.95000076
C    23.40999985  10.34999943  50.27000046
C    22.43999863  10.57000065  51.20999908
C    21.07999992  10.25000000  50.90000153
C    17.02000046   9.25000000  50.21999741
C    16.34000015   9.44000053  51.45000076
C    14.94999981   9.46000004  51.46999741
C    24.86000061  10.50000000  50.65999985
H    25.28817368   9.73642254  51.30939865
H    20.23999977  10.85000038  52.80000305
H    19.12999916   8.84000015  48.40999985
H    21.54999924   8.84000015  47.87000275
H    23.98999977   9.59000015  48.36999893
H    22.77000046  10.98000050  52.16999817
H    14.37000084   9.65999985  52.36000061
H    25.48999977  10.67000008  49.77000427
H    24.87999916  11.49000072  51.12999725
S    13.86000061   8.73000050  47.67000198
C    11.13000011   8.71000004  48.29999924
C    12.42000008   8.92000008  48.69999695
C    12.77999973   9.19999981  50.06000137
C    11.73999977   9.22000027  50.97999954
C    10.42000008   8.86999989  50.63999939
C     9.39999962   8.82999992  51.63999939
C     8.07999992   8.71999931  51.26999664
C     7.73999977   8.45000076  49.91000366
C     8.71000004   8.52000046  48.93000031
C    10.07999992   8.73999977  49.25000000
C    14.21000004   9.30999947  50.28999710
C    14.88999939   9.02999973  49.08000183
C    16.28000069   9.03999996  49.03999710
C     6.32999992   8.07999992  49.54000092
H     5.84786749   8.64012432  48.73880768
H    10.85000038   8.34000015  47.30999756
H    11.92999935   9.57999992  51.98999786
H     9.72999954   8.94999981  52.67000198
H     7.39000034   8.52999973  52.08000183
H     8.39999962   8.30999947  47.90999985
H    16.75000000   8.85000038  48.08000183
H     5.65999985   8.09000015  50.40999985
H     6.37000036   7.03000021  49.22999954
