96

S    17.13999939   9.52999973  58.88999939
C    19.81999969   9.80000019  58.15000153
C    18.53999901   9.47000027  57.78999710
C    18.20000076   9.11999989  56.45000076
C    19.22000122   9.15999985  55.51000214
C    20.59000015   9.27999973  55.83000183
C    21.68000031   9.18000031  54.92000198
C    22.98999977   9.46000004  55.25000000
C    23.19999886   9.92000008  56.56999969
C    22.20999908   9.96000004  57.52999878
C    20.86999893   9.61999989  57.19999695
C    16.76000023   8.97000027  56.36000061
C    16.03000069   9.35000038  57.51999664
C    14.63999939   9.43000031  57.50999832
C    24.61999893  10.24000072  56.97000122
H    24.99077415   9.55549335  57.73294067
H    20.17999840  10.26999950  59.06999969
H    18.98999977   9.02000046  54.45000076
H    21.44000053   8.92000008  53.89999771
H    23.77000046   9.30999947  54.50000000
H    22.46000099  10.19999981  58.55999756
H    14.02999973   9.48999977  58.40000153
H    25.31999969  10.21999931  56.12999725
H    24.56000137  11.25000000  57.39999771
S    13.63000011   8.25000000  53.86000061
C    10.88999939   8.31999969  54.54000092
C    12.20999908   8.47999954  54.89999771
C    12.50000000   8.80999947  56.25999832
C    11.46999931   9.02000046  57.16999817
C    10.13000011   8.76999950  56.81000137
C     9.04999924   8.71999931  57.75000000
C     7.79999971   8.27000046  57.41000366
C     7.51999950   7.86000013  56.06999969
C     8.51000023   7.95000029  55.11000061
C     9.81000042   8.39999962  55.45999908
C    13.94000053   9.02000046  56.37000275
C    14.68000031   8.67000008  55.21999741
C    16.06999969   8.69999981  55.17000198
C     6.14000034   7.40000010  55.66999817
H     5.60660744   8.06140709  54.98725891
H    10.62999916   8.01000023  53.53000259
H    11.64000034   9.26000023  58.20999908
H     9.22000027   8.86999989  58.81000137
H     7.07999992   8.02999973  58.18000031
H     8.31999969   7.49000025  54.15000153
H    16.57999992   8.52999973  54.22000122
H     5.55000019   7.22000027  56.58000183
H     6.23000050   6.38999987  55.25000000
S    13.31999969   6.15000010  50.72000122
C    10.65999985   5.66999960  51.47999573
C    12.01000023   5.50000000  51.72000122
C    12.46999931   4.90000010  52.93000031
C    11.56999969   4.38000011  53.85000229
C    10.19000053   4.50000000  53.57999802
C     9.26999950   3.81000018  54.41999817
C     7.92000008   3.91999984  54.20000076
C     7.42999983   4.61999989  53.06000137
C     8.30000019   5.27999973  52.22999954
C     9.71000004   5.21000004  52.42000198
C    13.90999985   4.99000025  53.09000015
C    14.44000053   5.79999971  52.04999924
C    15.75000000   6.25999975  52.15000153
C     5.96000004   4.56999969  52.70999908
H     5.62633753   3.71099544  52.12786484
H    10.32999992   6.03999996  50.51000214
H    11.92000008   3.73000002  54.65000153
H     9.75000000   3.28000021  55.22999573
H     7.17999983   3.55999994  54.89999771
H     7.86000013   5.73999977  51.33999634
H    16.18000031   6.86999989  51.36000061
H     5.44000053   4.65999985  53.67000198
H     5.75000000   5.52999973  52.21000290
S    17.21999931   4.50000000  55.44000244
C    19.78000069   5.52999973  54.93999863
C    18.44000053   5.49000025  54.61999893
C    17.97999954   6.05000019  53.39000320
C    18.86999893   6.63999987  52.50999832
C    20.26000023   6.51000023  52.72999573
C    21.25999832   7.02000046  51.86000061
C    22.60000038   6.77999973  52.05999756
C    23.03999901   6.15999985  53.26000214
C    22.11000061   5.65999985  54.13999939
C    20.72999954   5.92000008  53.95999908
C    16.55999947   5.78999996  53.18999863
C    16.01000023   5.00000000  54.23999786
C    14.68999958   4.57999992  54.18000031
C    24.51999855   5.92999983  53.47999954
H    24.83258438   6.05077124  54.51720810
H    20.23999977   5.13999987  55.84000015
H    18.64999962   7.05999947  51.52999878
H    20.88000107   7.40000010  50.90999985
H    23.29000092   7.13999987  51.31000137
H    22.36000061   5.13000011  55.06000137
H    14.37000084   3.91000009  54.95999908
H    25.00000000   6.65999985  52.81000137
H    24.79999924   4.96000004  53.06000137
