96

S    16.67000008  10.14999962  58.26000214
C    19.37000084   9.81999969  57.65999603
C    18.05999947   9.70000076  57.25000000
C    17.67000008   9.11000061  56.00999832
C    18.68999863   8.73999977  55.15999603
C    20.05000114   8.98999977  55.45999908
C    21.09999847   8.60000038  54.58000183
C    22.40999985   8.65999985  54.95999908
C    22.79000092   9.22000027  56.20999908
C    21.80000114   9.61000061  57.08000183
C    20.40999985   9.52000046  56.75000000
C    16.21999931   9.00000000  55.90000153
C    15.55999947   9.63999939  56.97000122
C    14.18000031   9.80000019  57.06999969
C    24.23999977   9.36999989  56.62000275
H    24.59576225   8.81501198  57.48806000
H    19.52000046  10.11999989  58.68999863
H    18.54999924   8.06999969  54.31999969
H    20.84000015   8.23999977  53.59000397
H    23.25000000   8.34999943  54.34000015
H    21.97000122   9.80000019  58.13999939
H    13.71999931  10.22999954  57.95000076
H    24.84000015   9.22999954  55.70999908
H    24.47000122  10.39000034  56.91999817
S    13.05999947   8.14999962  53.60000229
C    10.27999973   8.14000034  54.27999878
C    11.59999943   8.40999985  54.56999969
C    12.02000046   9.06000042  55.77999878
C    11.03999996   9.34000015  56.70999908
C     9.68999958   8.94999981  56.50000000
C     8.64000034   9.21000004  57.42000198
C     7.34000015   8.85999966  57.11000061
C     7.02000046   8.01000023  56.02000427
C     8.01999950   7.73000002  55.12000275
C     9.27999973   8.36999989  55.25000000
C    13.43999958   9.27999973  56.00000000
C    14.13000011   8.75000000  54.87999725
C    15.48999977   8.43999958  54.84000397
C     5.58000040   7.59000015  55.79000092
H     5.09696770   8.08013535  54.94469070
H     9.92000008   7.77999973  53.30999756
H    11.50000000   9.77999973  57.58999634
H     8.86999989   9.65999985  58.37999725
H     6.51000023   9.25000000  57.67000198
H     7.90000010   7.00000000  54.31999969
H    15.97000027   8.09000015  53.94000244
H     5.01999950   7.82999992  56.70000076
H     5.61999989   6.54999971  55.45999908
S    17.15999985  10.40999985  52.57999802
C    19.92000008  10.03999901  52.09999847
C    18.60999870   9.88000011  51.70999908
C    18.30000114   9.30000019  50.43000031
C    19.34000015   8.98999977  49.58000183
C    20.66999817   9.31999969  49.92000198
C    21.70000076   9.25000000  48.94000244
C    23.02000046   9.30999947  49.34000015
C    23.38999939   9.57999992  50.68000031
C    22.39000130   9.90999985  51.56999969
C    21.01000023   9.71000004  51.25999832
C    16.86000061   9.19999981  50.22999573
C    16.10999870   9.77000046  51.29000092
C    14.73000050   9.92000008  51.29000092
C    24.84999847   9.82999992  50.96000290
H    25.19148636   9.41025543  51.90620422
H    20.15999985  10.57999992  53.01000214
H    19.12999916   8.64000034  48.56999969
H    21.47000122   8.97999954  47.90999985
H    23.80000114   9.02999973  48.63999939
H    22.59000015  10.54999924  52.42000198
H    14.17000008  10.52999973  52.00000000
H    25.48999977   9.40999985  50.17000198
H    25.00000000  10.90999985  50.84000015
S    13.67000008   8.32999992  47.84000015
C    10.92000008   8.48999977  48.30999756
C    12.20000076   8.80999947  48.70999908
C    12.55000019   9.31999969  50.00000000
C    11.46999931   9.63000011  50.80999756
C    10.11999989   9.40999985  50.44000244
C     9.01000023   9.80000019  51.24000168
C     7.76000023   9.26999950  51.00000000
C     7.55000019   8.40999985  49.89999771
C     8.55000019   8.25000000  48.95999908
C     9.82999992   8.82999992  49.15999985
C    13.97999954   9.39000034  50.24000168
C    14.73000050   8.82000065  49.18000031
C    16.11999893   8.75000000  49.13999939
C     6.15000010   7.86999989  49.68999863
H     5.76140976   8.36456966  48.79977417
H    10.81999969   7.90000010  47.41000366
H    11.63000011  10.10000038  51.77000046
H     9.04999924  10.29000092  52.21000290
H     6.90999985   9.67000008  51.55000305
H     8.45000076   7.44999981  48.22999954
H    16.61999893   8.32999992  48.27000046
H     5.65000010   8.26000023  50.58000183
H     6.06999969   6.78999996  49.55999756
