96

S    16.54000092   8.89999962  58.85000229
C    19.23999977   9.36999989  58.15000153
C    18.01000023   8.82999992  57.84999847
C    17.72999954   8.32999992  56.53999710
C    18.72999954   8.25000000  55.59000015
C    20.02000046   8.73999977  55.89000320
C    21.07000160   8.55000019  54.94999695
C    22.32999992   9.01000023  55.27000046
C    22.62000084   9.39000034  56.60999680
C    21.65999985   9.44000053  57.58999634
C    20.29999924   9.21000004  57.22000122
C    16.29999924   8.23999977  56.29000092
C    15.53999996   8.67999935  57.39999771
C    14.15999985   8.80999947  57.48000336
C    24.04999924   9.72999954  56.95000076
H    24.49858475   9.06780338  57.69052124
H    19.34999847   9.80000019  59.13999939
H    18.50000000   7.85000038  54.59999847
H    20.88999939   8.11999989  53.96999741
H    23.12999916   8.97000027  54.54999924
H    22.01999855   9.67000008  58.59000397
H    13.64999962   9.13000011  58.37999725
H    24.63000107   9.89999962  56.03000259
H    24.02000046  10.69000053  57.48000336
S    13.09999943   7.49000025  53.92000198
C    10.36999893   7.26000023  54.62999725
C    11.61999893   7.76999998  54.86000061
C    11.96000004   8.21000004  56.18000031
C    10.98999977   8.32999992  57.15999985
C     9.63999939   8.00000000  56.88000107
C     8.55000019   8.05999947  57.78999710
C     7.27999973   7.69999981  57.42000198
C     7.02000046   7.09000015  56.16000366
C     8.07999992   6.84000015  55.31999969
C     9.36999989   7.34000015  55.63000107
C    13.38000107   8.43999958  56.37000275
C    14.14000034   8.07999992  55.22999573
C    15.52000046   7.96000004  55.15999603
C     5.63000011   6.69000053  55.72000122
H     5.13342428   7.32845449  54.98932266
H    10.03000069   6.80999994  53.69999695
H    11.19999981   8.69999981  58.15999985
H     8.85000038   8.46000004  58.75999832
H     6.42000008   7.90000010  58.04999924
H     7.88999987   6.63999987  54.26000214
H    15.95000076   7.59999990  54.22999954
H     5.03999996   6.77999973  56.63000107
H     5.64000034   5.66999960  55.31999969
S    17.15999985   9.55000019  52.83000183
C    19.79999924   9.75000000  52.04999924
C    18.51000023   9.44999981  51.68000031
C    18.15000153   9.19000053  50.31999969
C    19.17000008   9.15999985  49.38000107
C    20.51000214   9.42000008  49.75000000
C    21.57999992   9.31999969  48.81000137
C    22.86999893   9.61999989  49.15999985
C    23.16999817  10.06000042  50.47999954
C    22.20000076  10.06999969  51.45000076
C    20.85000038   9.76000023  51.10000229
C    16.70999908   8.97000027  50.25000000
C    16.04999924   9.21000004  51.47999573
C    14.68999958   9.42000008  51.62000275
C    24.63000107  10.29999924  50.79999924
H    25.04140472   9.72545147  51.62990570
H    19.97999954  10.00000000  53.09000015
H    19.00000000   8.93000031  48.33000183
H    21.38999939   8.97999954  47.80000305
H    23.59000015   9.72999954  48.34999847
H    22.44999886  10.42000008  52.44999695
H    14.15999985   9.77999973  52.50999832
H    25.25000000  10.08999920  49.92000198
H    24.80999947  11.36999989  50.93000031
S    13.40999985   8.53999996  47.98999786
C    10.70000076   8.40999985  48.75000000
C    12.02000046   8.60999966  49.09000015
C    12.43999958   8.97000027  50.41999817
C    11.44999981   9.11999989  51.37000275
C    10.06999969   9.01000023  51.06999969
C     9.02000046   9.06000042  52.02999878
C     7.77999973   8.51000023  51.79999924
C     7.40000010   8.19999981  50.45999908
C     8.34999943   8.30999947  49.47000122
C     9.70000076   8.67000008  49.72000122
C    13.88000011   9.13000011  50.52000046
C    14.55999947   8.88000011  49.29999924
C    15.93000031   8.78000069  49.09999847
C     6.07999992   7.57000017  50.08999634
H     5.55294466   8.28935909  49.46323013
H    10.40999985   7.90999985  47.83000183
H    11.71000004   9.44000053  52.37999725
H     9.27999973   9.30999947  53.04999924
H     7.05999947   8.30000019  52.57999802
H     8.19000053   7.96000004  48.46000290
H    16.26000023   8.78999996  48.06999969
H     5.44000053   7.23000002  50.90999985
H     6.32000017   6.65000010  49.54999924
