96

S    17.11000061   9.26999950  58.75999832
C    19.77000046   9.63000011  57.97000122
C    18.50000000   9.17000008  57.67000198
C    18.13999939   8.51000023  56.45999908
C    19.13999939   8.34000015  55.51000214
C    20.46999931   8.78999996  55.70999908
C    21.48999977   8.82999992  54.72000122
C    22.78000069   9.03999996  55.13999939
C    23.05999947   9.55999947  56.43000031
C    22.07999992   9.77000046  57.36999893
C    20.76000023   9.40999985  56.97999954
C    16.70999908   8.27000046  56.31999969
C    16.02000046   8.67999935  57.49000168
C    14.63000107   8.69999981  57.58999634
C    24.47000122   9.85000038  56.88999939
H    24.89017487   9.20193481  57.65913391
H    20.00000000   9.92999935  58.99000168
H    18.88000107   7.78999996  54.61999893
H    21.37000084   8.42000008  53.72000122
H    23.61000061   8.92000008  54.45000076
H    22.34999847  10.01000023  58.40000153
H    14.06999969   9.02000046  58.47000122
H    25.17999840   9.94999981  56.05999756
H    24.47999954  10.88000107  57.28000259
S    13.32999992   7.69999981  54.05000305
C    10.67999935   7.39000034  54.79999924
C    11.97000027   7.68000031  55.18000031
C    12.42000008   8.07999992  56.47999573
C    11.46000004   8.27000046  57.45999908
C    10.11999989   8.11999989  57.04999924
C     9.02999973   8.30000019  57.95000076
C     7.78999996   7.75000000  57.71999741
C     7.40000010   7.35000038  56.40999603
C     8.32999992   7.34000015  55.40000153
C     9.67000008   7.64999962  55.76000214
C    13.86999989   8.25000000  56.51000214
C    14.55999947   7.88999987  55.33000183
C    15.93999958   7.86000013  55.21999741
C     5.97000027   6.98999977  56.06999969
H     5.52895021   7.66580248  55.33728790
H    10.40999985   6.90999985  53.86000061
H    11.69000053   8.60999966  58.47000122
H     9.25000000   8.65999985  58.95000076
H     7.11999989   7.55000019  58.54999924
H     8.19000053   7.00000000  54.36999893
H    16.52000046   7.68000031  54.31999969
H     5.33999968   7.13000011  56.95000076
H     5.95000029   5.97000027  55.68000031
S    13.60999966   5.84999990  51.04000092
C    10.98000050   5.15999985  51.59000015
C    12.30999947   4.98000002  51.88000107
C    12.76999950   4.28999996  53.04999924
C    11.79999924   3.76999998  53.88999939
C    10.42000008   3.89999986  53.60000229
C     9.42000008   3.35000014  54.45000076
C     8.09000015   3.45000005  54.09000015
C     7.65999985   4.21999979  52.97999954
C     8.60000038   4.71000004  52.11999893
C     9.98999977   4.51000023  52.37999725
C    14.19000053   4.50000000  53.25000000
C    14.80000019   5.17000008  52.16999817
C    16.18000031   5.36999989  52.12999725
C     6.19999981   4.61999989  52.84999847
H     5.73694801   4.29942560  51.91677094
H    10.60999966   5.84999990  50.83000183
H    12.02000046   3.51000023  54.92000198
H     9.48999977   2.66000009  55.27999878
H     7.36999989   3.07999992  54.81999969
H     8.27000046   5.40999985  51.35000229
H    16.72000122   5.75000000  51.26999664
H     5.68000031   4.11999989  53.67000198
H     6.17000008   5.71000004  53.00000000
S    17.54999924   4.18000031  55.61999893
C    20.26000023   4.59999990  54.82999802
C    18.89999962   4.67999983  54.59999847
C    18.42000008   5.28999996  53.40000153
C    19.31999969   5.89999962  52.52999878
C    20.71000099   5.69999981  52.68000031
C    21.54999924   6.37000036  51.73999786
C    22.90999985   6.24000025  51.90000153
C    23.40999985   5.75999975  53.13999939
C    22.60000038   5.17000008  54.09000015
C    21.19999886   5.07000017  53.88000107
C    16.97999954   5.13000011  53.25000000
C    16.34000015   4.59000015  54.38999939
C    15.00000000   4.21999979  54.36000061
C    24.86000061   6.05000019  53.41999817
H    25.16439629   5.63942099  54.38274002
H    20.65000153   4.19999981  55.76000214
H    19.06999969   6.39999962  51.59999847
H    21.09999847   7.07999992  51.05999756
H    23.54000092   6.65000010  51.11999893
H    22.95000076   4.79999971  55.05000305
H    14.57999992   3.67000008  55.20000076
H    25.03000069   7.13000011  53.43000031
H    25.43000031   5.66999960  52.56000137
