96

S    16.69999886   9.26999950  58.68999863
C    19.37999916   9.30000019  58.02999878
C    18.09999847   8.98999977  57.63000107
C    17.76000023   8.52999973  56.31999969
C    18.79999924   8.34000015  55.41999817
C    20.13000107   8.64999962  55.77000046
C    21.19999886   8.48999977  54.84000397
C    22.44999886   8.89000034  55.25000000
C    22.79999924   9.39999962  56.52000046
C    21.76000214   9.55999947  57.41000366
C    20.43000031   9.17000008  57.08000183
C    16.31999969   8.52000046  56.14999771
C    15.62000084   8.82000065  57.35000229
C    14.22999954   8.88000011  57.41000366
C    24.15999985   9.96000004  56.86999893
H    24.65155602   9.29746628  57.58240509
H    19.61000061   9.64999962  59.02999878
H    18.72999954   8.01000023  54.38999939
H    21.01000023   8.11999989  53.83999634
H    23.26999855   8.89000034  54.52999878
H    21.98999786   9.96000004  58.40000153
H    13.57999992   9.00000000  58.27000046
H    24.68000031  10.00000000  55.90000153
H    24.02000046  10.95999908  57.29999924
S    13.22000027   7.71000004  53.72000122
C    10.52999973   7.44999981  54.47000122
C    11.79999924   7.90000010  54.75999832
C    12.10000038   8.59000015  55.97999954
C    11.05999947   8.78000069  56.86999893
C     9.78999996   8.23999977  56.59999847
C     8.71000004   8.28999996  57.54000092
C     7.42000008   7.92999983  57.25000000
C     7.11999989   7.35000038  55.98999786
C     8.11999989   7.14999962  55.06999969
C     9.44000053   7.59000015  55.35999680
C    13.53999996   8.71000004  56.19999695
C    14.22999954   8.39999962  55.00000000
C    15.62000084   8.36000061  54.94999695
C     5.78000021   6.72999954  55.63999939
H     5.28743172   7.32250977  54.86902237
H    10.36999893   6.80999994  53.61000061
H    11.25000000   9.19000053  57.85999680
H     8.98999977   8.57999992  58.54999924
H     6.58999968   7.94000053  57.95000076
H     7.97999954   6.48000002  54.22000122
H    16.14999962   8.03999996  54.06999969
H     5.18000031   6.71000004  56.56000137
H     6.01000023   5.72000027  55.28999710
S    17.68000031   9.94000053  52.70000076
C    20.31999969  10.03000069  51.90000153
C    19.03000069   9.63000011  51.59999847
C    18.65999985   9.06999969  50.33000183
C    19.64999962   8.85000038  49.40000153
C    21.01000023   9.15999985  49.66999817
C    22.04999924   8.96000004  48.72000122
C    23.36000061   9.28999996  48.99000168
C    23.61000061   9.86999989  50.26000214
C    22.65000153  10.19000053  51.18999863
C    21.30000114   9.85999966  50.89000320
C    17.20999908   8.93000031  50.30000305
C    16.53000069   9.39000034  51.45999908
C    15.14999962   9.55000019  51.42000198
C    25.06000137  10.07999992  50.63999939
H    25.30142403   9.66815853  51.61989975
H    20.59999847  10.39000034  52.88999939
H    19.44000053   8.36000061  48.46000290
H    21.68999863   8.36000061  47.88999939
H    24.15999985   9.06000042  48.29999924
H    22.93999863  10.59000015  52.15999985
H    14.57999992  10.03000069  52.21000290
H    25.62999916   9.61000061  49.81999969
H    25.19000053  11.17000008  50.63000107
S    13.97999954   7.82000017  48.08000183
C    11.26999950   8.05999947  48.61999893
C    12.56000042   8.40999985  48.95999908
C    12.94000053   9.00000000  50.20999908
C    11.90000057   9.30999947  51.06999969
C    10.57999992   8.90999985  50.77999878
C     9.52999973   9.13999939  51.72000122
C     8.22000027   8.82000065  51.45999908
C     7.86000013   8.06999969  50.30000305
C     8.85999966   7.88999987  49.36999893
C    10.21000004   8.30999947  49.52999878
C    14.39000034   9.03999996  50.35999680
C    15.10000038   8.45000076  49.29000092
C    16.48999977   8.43999958  49.20000076
C     6.39999962   7.79999971  49.98000336
H     5.91608381   8.46894264  49.26835632
H    10.95999908   7.67000008  47.65999603
H    12.15000057   9.73999977  52.02999878
H     9.72999954   9.50000000  52.72999573
H     7.53999996   9.13000011  52.25000000
H     8.61999989   7.53000021  48.37999725
H    17.04000092   8.07999992  48.34000015
H     5.75000000   7.76000023  50.86000061
H     6.28000021   6.80999994  49.52999878
