96

S    17.06999969   9.30999947  58.77999878
C    19.78000069   9.36999989  58.08000183
C    18.51000023   8.92000008  57.81000137
C    18.15999985   8.32999992  56.56000137
C    19.11999893   8.18000031  55.58000183
C    20.43999863   8.61999989  55.81999969
C    21.47000122   8.60999966  54.82999802
C    22.73999977   9.07999992  55.06999969
C    23.06999969   9.56999969  56.36000061
C    22.13000107   9.59999943  57.36000061
C    20.79000092   9.19000053  57.09999847
C    16.72999954   8.22000027  56.33999634
C    16.03000069   8.69999981  57.48000336
C    14.63999939   8.69000053  57.52999878
C    24.48999786   9.94999981  56.72000122
H    24.84574699   9.28831291  57.50975800
H    20.06999969   9.85000038  59.01000214
H    18.95000076   7.76999998  54.58000183
H    21.25999832   8.10999966  53.88999939
H    23.50000000   9.00000000  54.29000092
H    22.36999893   9.98000050  58.34999847
H    14.04000092   9.00000000  58.39000320
H    25.12000084  10.07999992  55.83000183
H    24.37000084  10.97000027  57.09999847
S    13.40999985   7.60999966  53.93000031
C    10.75000000   7.40999985  54.72999954
C    12.03999996   7.78999996  55.04000092
C    12.43999958   8.32999992  56.30000305
C    11.44000053   8.48999977  57.25000000
C    10.08999920   8.18000031  56.97999954
C     9.07999992   8.38999939  57.95999908
C     7.81000042   7.97999954  57.64999771
C     7.42000008   7.48000050  56.38000107
C     8.39999962   7.18999958  55.45999908
C     9.73999977   7.59000015  55.70999908
C    13.89000034   8.47999954  56.37000275
C    14.55999947   8.10000038  55.19000244
C    15.95000076   8.02999973  55.19000244
C     5.98999977   6.98999977  56.25000000
H     5.46199751   7.66784096  55.57929611
H    10.48999977   7.17000008  53.69999695
H    11.56000042   8.88000011  58.26000214
H     9.38000011   8.80000019  58.92000198
H     7.04999971   7.96999979  58.43000031
H     8.25000000   6.74000025  54.47999954
H    16.48999977   7.77999973  54.27999878
H     5.50000000   6.90000010  57.22999954
H     6.05999994   5.98999977  55.79999924
S    13.43000031   5.47999954  50.97999954
C    10.80999947   4.81999969  51.79999924
C    12.17000008   4.76000023  51.98999786
C    12.79000092   4.28000021  53.18999863
C    11.94000053   3.74000025  54.13999939
C    10.53999996   3.61999989  53.93000031
C     9.61000061   3.15000010  54.89999771
C     8.25000000   3.25000000  54.75000000
C     7.68000031   3.93000007  53.62999725
C     8.53999996   4.35999966  52.64999771
C     9.96000004   4.26000023  52.77999878
C    14.21000004   4.53999996  53.29999924
C    14.72000027   5.23000002  52.15999985
C    16.04999924   5.61999989  52.14000320
C     6.19999981   4.15999985  53.46000290
H     5.82209492   3.76070452  52.51880646
H    10.44000053   5.44000053  50.97999954
H    12.23999977   3.40999985  55.13000107
H    10.03999901   2.87999988  55.86000061
H     7.55999994   2.70000005  55.38999939
H     8.11999989   4.76999998  51.73999786
H    16.55999947   6.24000025  51.40999603
H     5.82999992   3.61999989  54.34000015
H     6.00000000   5.23999977  53.48999786
S    17.64000130   3.89999986  55.41999817
C    20.20000076   4.73000002  54.73999786
C    18.86000061   4.76999998  54.45999908
C    18.31999969   5.45000029  53.30999756
C    19.18000031   6.02999973  52.39999771
C    20.55999947   6.05999994  52.68000031
C    21.48999977   6.56000042  51.72000122
C    22.85000038   6.43000031  51.88999939
C    23.35000038   5.97000027  53.13000107
C    22.49000168   5.45000029  54.06999969
C    21.07999992   5.38999987  53.83999634
C    16.88999939   5.19999981  53.18000031
C    16.40999985   4.36999989  54.22999954
C    15.06999969   4.00999975  54.27000046
C    24.84000015   5.77000046  53.29999924
H    25.20992851   5.81268406  54.32441711
H    20.66999817   4.41000032  55.66999817
H    18.73999977   6.47000027  51.51000214
H    21.14999962   6.83000040  50.72999954
H    23.61000061   6.53999996  51.11999893
H    22.89999962   4.92999983  54.92000198
H    14.65999985   3.28999996  54.97000122
H    25.38999939   6.52999973  52.72999573
H    25.06999969   4.78999996  52.85999680
