96

S    16.62999916   9.68999958  58.62999725
C    19.31999969   9.85999966  57.87000275
C    18.04999924   9.38000011  57.62000275
C    17.73999977   8.63000011  56.44000244
C    18.76000023   8.40999985  55.52999878
C    20.00999832   9.04999924  55.68000031
C    21.02000046   8.80999947  54.69999695
C    22.29999924   9.18000031  55.06000137
C    22.67000008   9.85999966  56.25000000
C    21.67000008  10.19999981  57.11999893
C    20.36000061   9.67000008  56.93000031
C    16.31999969   8.34000015  56.38000107
C    15.57000065   8.97000027  57.39999771
C    14.18000031   9.02000046  57.42000198
C    24.07999992  10.36000061  56.45999908
H    24.51983452   9.72153282  57.22616196
H    19.47000122  10.39000034  58.80000305
H    18.60000038   7.76000023  54.66999817
H    20.69000053   8.13000011  53.92000198
H    23.02000046   9.11999989  54.23999786
H    21.84000015  10.71000004  58.06999969
H    13.73999977   9.31999969  58.36000061
H    24.67000008  10.32999992  55.52999878
H    24.06999969  11.40999985  56.76000214
S    13.19000053   7.26000023  54.00000000
C    10.47999954   7.37999964  54.54999924
C    11.75000000   7.76999998  54.89999771
C    12.02999973   8.42000008  56.14999771
C    11.00000000   8.76000023  57.00000000
C     9.64999962   8.47999954  56.68000031
C     8.56999969   8.67999935  57.57999802
C     7.26999998   8.36999989  57.22999954
C     7.07000017   7.68000031  56.00999832
C     8.10999966   7.42000008  55.14999771
C     9.44999981   7.79999971  55.41999817
C    13.48000050   8.50000000  56.32999802
C    14.22999954   7.86999989  55.31000137
C    15.60999966   7.73000002  55.33000183
C     5.69000006   7.13999987  55.68999863
H     5.20875120   7.78402376  54.95397186
H    10.21000004   6.65000010  53.79000092
H    11.28999901   9.15999985  57.97000122
H     8.80000019   9.02000046  58.57999802
H     6.44000006   8.55000019  57.90000153
H     7.99000025   6.67999983  54.36000061
H    16.13000107   7.36999989  54.43999863
H     5.18000031   7.00000000  56.65000153
H     5.88999987   6.21000004  55.14999771
S    13.93000031   5.66999960  51.00999832
C    11.19999981   5.26999998  51.66999817
C    12.53999901   5.01999950  51.90000153
C    12.96000004   4.18000031  52.97999954
C    12.02000046   3.63000011  53.81999969
C    10.64000034   3.81000018  53.55999756
C     9.64999962   3.42000008  54.51000214
C     8.31999969   3.52999973  54.20000076
C     7.94000053   4.26000023  53.04000092
C     8.84000015   4.73000002  52.11000061
C    10.21999931   4.53999996  52.38999939
C    14.40999985   4.21000004  53.15999985
C    15.06000042   5.07999992  52.25000000
C    16.39999962   5.42999983  52.36000061
C     6.47000027   4.59000015  52.98999786
H     5.95987272   4.16489363  52.12561798
H    10.84000015   6.00000000  50.93999863
H    12.30000019   3.02999997  54.68000031
H     9.90999985   2.79999995  55.37000275
H     7.55000019   3.14000010  54.86000061
H     8.56000042   5.32000017  51.24000168
H    16.68000031   6.03999996  51.51000214
H     5.95000029   4.21999979  53.88000107
H     6.35999966   5.68000031  53.02000046
S    17.54999924   3.97000027  55.81999969
C    20.31999969   4.46000004  55.25000000
C    18.98999977   4.44000006  54.88999939
C    18.63000107   4.90000010  53.57999802
C    19.56999969   5.44000053  52.70999908
C    20.92000008   5.51000023  53.11000061
C    21.90999985   6.11999989  52.28000259
C    23.19999886   6.19000006  52.75000000
C    23.59000015   5.68000031  54.02000046
C    22.67999840   4.94999981  54.75000000
C    21.31999969   4.88000011  54.34000015
C    17.20000076   4.82999992  53.34000015
C    16.47999954   4.28000021  54.43000031
C    15.17000008   3.84999990  54.27999878
C    24.76000023   6.30999994  54.72999954
H    25.31484604   5.59865952  55.34175110
H    20.62000084   4.19999981  56.26999664
H    19.15999985   5.86999989  51.81000137
H    21.52000046   6.74000025  51.47999573
H    23.90000153   6.85999966  52.27000427
H    22.88999939   4.61000013  55.76000214
H    14.65000057   3.26999998  55.04000092
H    24.56999969   7.17999983  55.38000107
H    25.38999939   6.71000004  53.92000198
