96

S    16.75000000   9.19999981  58.93000031
C    19.52999878   9.15999985  58.43000031
C    18.25000000   8.80999947  58.06000137
C    17.95999908   8.17000008  56.81999969
C    19.00000000   8.00000000  55.91999817
C    20.29999924   8.42000008  56.27999878
C    21.37000084   8.23000050  55.34999847
C    22.65000153   8.61999989  55.66999817
C    22.90999985   9.30000019  56.88000107
C    21.94000053   9.47000027  57.84999847
C    20.61000061   9.06999969  57.51999664
C    16.54000092   8.15999985  56.52000046
C    15.72999954   8.67999935  57.56999969
C    14.34000015   8.76999950  57.54000092
C    24.30999947   9.78999996  57.16999817
H    24.86488152   9.30625820  57.97386551
H    19.67000008   9.48999977  59.45999908
H    18.76000023   7.42999983  55.02999878
H    21.17000198   7.92999983  54.33000183
H    23.42000008   8.57999992  54.91000366
H    22.14999962   9.89000034  58.82999802
H    13.71999931   9.19000053  58.31999969
H    24.90999985   9.70000076  56.25999832
H    24.23999977  10.82999992  57.50999832
S    13.43000031   7.26999998  54.00000000
C    10.62000084   7.35000038  54.54999924
C    11.92999935   7.63000011  54.87999725
C    12.27000046   8.19999981  56.14999771
C    11.26000023   8.50000000  57.04000092
C     9.89999962   8.23999977  56.72999954
C     8.93000031   8.52000046  57.74000168
C     7.63000011   8.21000004  57.42000198
C     7.27999973   7.75000000  56.12999725
C     8.21000004   7.42000008  55.15999603
C     9.57999992   7.63000011  55.47000122
C    13.69999981   8.38000011  56.36000061
C    14.47999954   7.86999989  55.28999710
C    15.85999966   7.71000004  55.38000107
C     5.84999990   7.27999973  55.97999954
H     5.26795149   7.98271751  55.38375473
H    10.31000042   6.93000031  53.59000397
H    11.51000023   8.93000031  58.01000214
H     9.23999977   8.75000000  58.75999832
H     6.91999960   8.36999989  58.22999954
H     7.99000025   7.05999947  54.15999985
H    16.36999893   7.32999992  54.50000000
H     5.42000008   7.11999989  56.97999954
H     5.92000008   6.28999996  55.52000046
S    13.36999989   5.03000021  51.25999832
C    10.72000027   4.71000004  52.04999924
C    12.03999996   4.41000032  52.27000427
C    12.51000023   3.82999992  53.48999786
C    11.52999973   3.48000002  54.40000153
C    10.17000008   3.81000018  54.25000000
C     9.11999989   3.42999983  55.13999939
C     7.78999996   3.61999989  54.81999969
C     7.40000010   4.25000000  53.60000229
C     8.36999989   4.74000025  52.76000214
C     9.72999954   4.42000008  53.02999878
C    13.94000053   4.01999998  53.62999725
C    14.55000019   4.65999985  52.52999878
C    15.90000057   5.00999975  52.60000229
C     5.91000032   4.34999990  53.36000061
H     5.63264275   4.21487713  52.31457520
H    10.42000008   5.23000002  51.14999771
H    11.76000023   3.12999988  55.40999985
H     9.34000015   2.82000017  56.00999832
H     7.03999996   3.28999996  55.52000046
H     8.14000034   5.26999998  51.84000015
H    16.38000107   5.49000025  51.76000214
H     5.32999992   3.53999996  53.81000137
H     5.46999979   5.27999973  53.75000000
S    17.31999969   3.65000010  55.94999695
C    20.00999832   4.30000019  55.31999969
C    18.65999985   4.42000008  55.08999634
C    18.18000031   4.88999987  53.82999802
C    19.03000069   5.51000023  52.93000031
C    20.42000008   5.44000053  53.18000031
C    21.47000122   5.84000015  52.29999924
C    22.81999969   5.73000002  52.50999832
C    23.25000000   5.03999996  53.68000031
C    22.30999947   4.51000023  54.52999878
C    20.92000008   4.77999973  54.34999847
C    16.73999977   4.69999981  53.68000031
C    16.09000015   3.97000027  54.71000290
C    14.75999928   3.56999993  54.68000031
C    24.71999931   4.92999983  54.01000214
H    25.01099396   5.46940327  54.91136932
H    20.31999969   3.52999973  56.03000259
H    18.65999985   5.86999989  51.97000122
H    21.21999931   6.19999981  51.31000137
H    23.52000046   6.07999992  51.76000214
H    22.55000114   3.88999987  55.38999939
H    14.42000008   3.09999990  55.59999847
H    25.28000069   5.22000027  53.11000061
H    24.93999863   3.88000011  54.22999954
