96

S    16.92000008   8.90999985  58.70999908
C    19.63999939   9.17000008  57.91999817
C    18.36000061   8.69999981  57.70000076
C    17.98999977   8.23999977  56.39999771
C    18.96999931   8.10000038  55.43000031
C    20.29999924   8.52000046  55.66999817
C    21.35000038   8.14999962  54.79000092
C    22.67000008   8.43999958  55.06000137
C    22.96999931   9.13000011  56.26999664
C    22.01000023   9.42000008  57.21000290
C    20.66999817   9.00000000  56.97000122
C    16.54999924   8.11999989  56.22000122
C    15.82999992   8.56999969  57.35000229
C    14.44000053   8.64000034  57.30999756
C    24.38999939   9.57999992  56.52000046
H    24.83949661   8.94499683  57.28342819
H    19.85000038   9.68999958  58.86000061
H    18.85000038   7.51999950  54.52000046
H    21.12999916   7.57000017  53.89999771
H    23.50000000   8.05000019  54.47999954
H    22.29000092   9.89999962  58.15000153
H    13.88000011   8.93000031  58.20000076
H    25.09000015   9.44000053  55.68999863
H    24.36000061  10.64000034  56.79999924
S    13.47000027   7.23999977  53.68999863
C    10.80000019   6.91999960  54.52999878
C    12.03999996   7.46999979  54.72000122
C    12.35000038   7.96000004  56.03000259
C    11.35000038   8.05000019  56.98999786
C    10.00000000   7.77999973  56.66999817
C     8.89999962   7.97999954  57.56000137
C     7.65999985   7.49000025  57.25999832
C     7.44000006   6.67999983  56.11000061
C     8.45000076   6.51000023  55.19000244
C     9.73999977   7.05999947  55.45999908
C    13.78000069   8.14999962  56.18000031
C    14.51000023   7.68000031  55.06000137
C    15.90000057   7.62000036  55.07999802
C     6.05000019   6.14000034  55.89000320
H     5.56655598   6.71586657  55.10085297
H    10.69000053   6.44000006  53.54999924
H    11.61999893   8.22000027  58.02999878
H     9.03999996   8.42000008  58.54000092
H     6.78999996   7.73999977  57.87000275
H     8.19999981   5.96000004  54.29000092
H    16.53000069   7.21000004  54.29999924
H     5.36999989   6.19000006  56.75000000
H     6.07999992   5.05000019  55.70999908
S    17.43000031   9.61000061  52.57999802
C    20.15000153   9.68999958  52.05999756
C    18.90999985   9.23999977  51.66999817
C    18.64999962   8.71999931  50.35999680
C    19.77000046   8.61999989  49.54000092
C    21.07999992   8.90999985  49.97000122
C    22.13999939   8.78999996  49.02000046
C    23.35000038   9.30999947  49.38999939
C    23.61000061   9.94000053  50.63000107
C    22.57999802  10.06999969  51.53999710
C    21.31000137   9.48999977  51.26999664
C    17.22999954   8.52000046  50.14999771
C    16.45000076   9.01000023  51.24000168
C    15.06999969   9.22999954  51.18000031
C    25.00999832  10.43000031  50.93999863
H    25.45150948   9.79621887  51.70908356
H    20.27000046  10.31999969  52.94000244
H    19.62000084   8.26000023  48.53000259
H    21.86000061   8.47000027  48.01000214
H    24.11999893   9.40999985  48.62999725
H    22.60999870  10.43000031  52.56999969
H    14.59000015   9.51000023  52.11000061
H    25.61000061  10.43000031  50.02999878
H    24.96000099  11.50000000  51.19999695
S    14.06000042   7.67000008  47.70999908
C    11.31000042   7.78999996  48.33000183
C    12.61999989   8.01999950  48.68000031
C    12.94000053   8.69999981  49.89999771
C    11.94000053   8.92000008  50.84000015
C    10.60999966   8.52999973  50.56999969
C     9.63000011   8.67999935  51.59999847
C     8.36999989   8.23999977  51.27999878
C     8.01000023   7.51999950  50.11000061
C     9.00000000   7.32999992  49.18000031
C    10.29000092   7.92999983  49.31000137
C    14.37999916   8.86999989  50.00999832
C    15.14999962   8.30000019  48.95999908
C    16.53000069   8.22000027  48.97999573
C     6.54999971   7.26000023  49.81999969
H     6.12982512   7.90806627  49.05086899
H    11.13999939   7.40999985  47.32999802
H    12.07999992   9.38000011  51.81000137
H     9.98000050   9.06000042  52.56000137
H     7.60999966   8.46000004  52.02999878
H     8.82999992   6.78999996  48.25000000
H    17.07999992   7.92000008  48.08000183
H     6.02999973   7.40000010  50.77999878
H     6.39999962   6.23000050  49.47999954
