96

S    16.75000000   9.71000004  58.61000061
C    19.45000076   9.84000015  57.93000031
C    18.19000053   9.36999989  57.63999939
C    17.94000053   8.78999996  56.35000229
C    18.96999931   8.57999992  55.45000076
C    20.29999924   8.92000008  55.77000046
C    21.37000084   8.80000019  54.84000397
C    22.63000107   9.25000000  55.17000198
C    22.86999893   9.85000038  56.44000244
C    21.84000015  10.03000069  57.32999802
C    20.52000046   9.59000015  57.02000046
C    16.50000000   8.75000000  56.13999939
C    15.72999954   9.19000053  57.25000000
C    14.35999966   9.42000008  57.25000000
C    24.27999878  10.15999985  56.86999893
H    24.67107773   9.48450089  57.63082504
H    19.52000046  10.47000027  58.81000137
H    18.76000023   8.19000053  54.45000076
H    21.09999847   8.26000023  53.94000244
H    23.51000023   8.92000008  54.61999893
H    22.01999855  10.64000034  58.20999908
H    13.73000050   9.86999989  58.02000046
H    24.89999962  10.17000008  55.97000122
H    24.21999931  11.21000099  57.19999695
S    13.45000076   7.88000011  53.68000031
C    10.70000076   7.85000038  54.38000107
C    12.00000000   8.22000027  54.64000320
C    12.30999947   8.92000008  55.84999847
C    11.31999969   9.13000011  56.79999924
C    10.01999950   8.60000038  56.59999847
C     8.97999954   8.76000023  57.56000137
C     7.69000006   8.46000004  57.18000031
C     7.34000015   7.82000017  55.97000122
C     8.34000015   7.57000017  55.05000305
C     9.68000031   7.96000004  55.34999847
C    13.75000000   9.02999973  56.05999756
C    14.48999977   8.60999966  54.92000198
C    15.86999989   8.46000004  54.93000031
C     5.96000004   7.32999992  55.61000061
H     5.48292494   7.89964199  54.81250000
H    10.55999947   7.42000008  53.40000153
H    11.46000004   9.55999947  57.77999878
H     9.17000008   9.13999939  58.55999756
H     6.88000011   8.43000031  57.90000153
H     8.13000011   7.17000008  54.06999969
H    16.46000099   7.96999979  54.15000153
H     5.36000013   7.40000010  56.53999710
H     6.01999998   6.28999996  55.27000046
S    13.43000031   5.65999985  50.84000015
C    10.78999996   5.21000004  51.56999969
C    12.11999989   5.09000015  51.90000153
C    12.67000008   4.40000010  53.02999878
C    11.80999947   3.86999989  53.96999741
C    10.42000008   4.05000019  53.75000000
C     9.44000053   3.63999987  54.69999695
C     8.09000015   3.65000010  54.45999908
C     7.60999966   4.13999987  53.22000122
C     8.51000023   4.69999981  52.34000397
C     9.92000008   4.65999985  52.55000305
C    14.09999943   4.57999992  53.16999817
C    14.63999939   5.31000042  52.08000183
C    15.97000027   5.72000027  52.04000092
C     6.10000038   4.21000004  53.04999924
H     5.73734760   3.95400977  52.05448151
H    10.40999985   5.78999996  50.72999954
H    12.25000000   3.44000006  54.86999893
H     9.72000027   3.21000004  55.65999985
H     7.44000006   3.25000000  55.24000168
H     8.19999981   5.33999968  51.52000046
H    16.36000061   6.23000050  51.17000198
H     5.65999985   3.51000023  53.76999664
H     5.77000046   5.23999977  53.20999908
S    17.56000137   4.19000006  55.28999710
C    20.20000076   4.73000002  54.48999786
C    18.85000038   4.82999992  54.25000000
C    18.30999947   5.44000053  53.08000183
C    19.18000031   5.92999983  52.12999725
C    20.58000183   5.79999971  52.29999924
C    21.53000069   6.44999981  51.45999908
C    22.86000061   6.51000023  51.79999924
C    23.32999992   5.93999958  53.01000214
C    22.49000168   5.23999977  53.83999634
C    21.09999847   5.19999981  53.50000000
C    16.84999847   5.40999985  53.09000015
C    16.28000069   4.69999981  54.16999817
C    14.98999977   4.19000006  54.18000031
C    24.82000160   6.10000038  53.20999908
H    25.07553291   5.32630110  53.93400955
H    20.59999847   4.33999968  55.41999817
H    18.81000137   6.46000004  51.25999832
H    21.21000099   7.04999971  50.61000061
H    23.67000198   6.93000031  51.22000122
H    22.76000023   4.90000010  54.82999802
H    14.63999939   3.51999998  54.97000122
H    25.10000038   7.05999947  53.66000366
H    25.36000061   5.97000027  52.25999832
