96

S    16.67000008   9.43000031  58.66000366
C    19.37000084   9.63999939  58.02000046
C    18.12000084   9.19999981  57.65999603
C    17.85000038   8.64999962  56.37000275
C    18.89000130   8.31999969  55.52000046
C    20.19000053   8.75000000  55.86999893
C    21.31000137   8.71999931  54.99000168
C    22.60000038   9.02000046  55.34000015
C    22.82999992   9.57999992  56.62000275
C    21.73999977   9.96000004  57.36999893
C    20.43999863   9.44000053  57.11000061
C    16.42000008   8.50000000  56.14999771
C    15.67999935   8.92000008  57.28000259
C    14.32000065   9.15999985  57.16999817
C    24.18000031  10.11999989  57.04999924
H    24.62942886   9.52076149  57.84185028
H    19.51000023  10.11999989  58.99000168
H    18.75000000   7.94000053  54.51000214
H    21.09000015   8.47999954  53.95000076
H    23.38000107   8.80999947  54.61000061
H    21.84999847  10.52000046  58.29999924
H    13.71000099   9.59999943  57.95999908
H    24.84999847  10.24000072  56.18000031
H    24.11000061  11.07999992  57.56999969
S    13.22000027   7.46000004  53.75999832
C    10.52000046   7.40000010  54.56999969
C    11.80999947   7.86000013  54.75000000
C    12.17000008   8.43999958  56.00999832
C    11.19999981   8.78000069  56.93000031
C     9.88000011   8.28999996  56.77999878
C     8.86999989   8.51000023  57.75000000
C     7.55000019   8.23000050  57.50000000
C     7.23000002   7.60999966  56.25999832
C     8.14999962   7.36000013  55.27999878
C     9.52000046   7.68000031  55.52999878
C    13.61999989   8.56999969  56.11000061
C    14.34000015   8.00000000  55.02999878
C    15.72999954   8.10999966  55.00000000
C     5.80999947   7.07999992  56.17000198
H     5.19200230   7.79744577  55.63014221
H    10.27999973   6.94000006  53.61000061
H    11.46999931   9.32999992  57.83000183
H     9.19999981   8.93999958  58.69999695
H     6.71999979   8.26000023  58.20000076
H     7.96000004   6.70000029  54.43999863
H    16.26000023   7.88000011  54.06999969
H     5.40999985   6.74000025  57.12999725
H     5.80999947   6.15000010  55.59000015
S    14.14999962   5.51999998  50.79000092
C    11.49000072   4.86999989  51.37000275
C    12.81999969   4.79999971  51.70999908
C    13.27999973   4.25000000  52.95000076
C    12.34000015   3.81999993  53.87000275
C    10.97000027   3.84000015  53.53000259
C     9.92000008   3.51000023  54.43000031
C     8.59000015   3.63999987  54.09999847
C     8.14000034   4.32000017  52.93000031
C     9.13999939   4.65000010  52.04000092
C    10.52000046   4.36999989  52.27000427
C    14.72000027   4.42999983  53.09999847
C    15.34999943   5.07999992  52.02000046
C    16.67000008   5.51000023  52.11000061
C     6.77999973   4.97000027  52.84999847
H     6.17093801   4.44592381  52.11346054
H    11.21999931   5.47999954  50.51000214
H    12.64999962   3.60000014  54.88999939
H    10.22999954   3.42000008  55.47000122
H     7.92000008   3.51999998  54.94999695
H     9.01000023   5.17000008  51.10000229
H    17.09000015   6.05000019  51.26999664
H     6.32999992   4.90999985  53.85000229
H     6.89000034   6.05000019  52.69000244
S    17.86000061   4.18000031  55.65000153
C    20.59000015   4.73000002  55.06999969
C    19.25000000   4.79999971  54.73999786
C    18.86000061   5.42000008  53.50999832
C    19.80999947   5.97000027  52.67000198
C    21.18000031   5.93999958  53.02000046
C    22.19000053   6.51000023  52.18000031
C    23.51000023   6.32000017  52.49000168
C    23.92000008   5.58000040  53.62999725
C    22.96999931   5.19000006  54.54000092
C    21.57999992   5.33999968  54.27000046
C    17.43000031   5.26000023  53.26000214
C    16.76000023   4.59000015  54.31000137
C    15.46000004   4.11999989  54.26000214
C    25.38999939   5.42999983  53.95999908
H    25.58303070   5.81606102  54.96089554
H    20.90999985   4.30000019  56.00999832
H    19.50000000   6.46000004  51.75000000
H    21.86000061   6.98999977  51.26999664
H    24.28999901   6.86999989  51.95999908
H    23.29000092   4.65999985  55.44000244
H    14.96000099   3.60000014  55.06999969
H    25.88999939   5.88000011  53.09999847
H    25.69000053   4.36999989  53.89999771
