96

S    17.23999977   9.61999989  58.69999695
C    19.93000031   9.78999996  58.11999893
C    18.68999863   9.32999992  57.71999741
C    18.37000084   8.97999954  56.37000275
C    19.38999939   8.89999962  55.43000031
C    20.68000031   9.32999992  55.81999969
C    21.76000214   9.34000015  54.88999939
C    22.98999977   9.85000038  55.21999741
C    23.22000122  10.39999962  56.51000214
C    22.22999954  10.36000061  57.47000122
C    20.96999931   9.77999973  57.15999985
C    16.94000053   8.82000065  56.17000198
C    16.21000099   9.26000023  57.29999924
C    14.81999969   9.25000000  57.32999802
C    24.60000038  10.88999939  56.90000153
H    24.99953461  10.16227436  57.60632324
H    20.17000008  10.27999973  59.06000137
H    19.26000023   8.47999954  54.43999863
H    21.60000038   9.06000042  53.85000229
H    23.72999954   9.88000011  54.43000031
H    22.39999962  10.82999992  58.43000031
H    14.34999943   9.55999947  58.26000214
H    25.20999908  10.92000008  55.97999954
H    24.73999977  11.82000065  57.45999908
S    13.76999950   7.96000004  53.70999908
C    11.07999992   7.86999989  54.43999863
C    12.35999966   8.30000019  54.72999954
C    12.67000008   8.84000015  56.02000427
C    11.63000011   9.09000015  56.88999939
C    10.31000042   8.60999966  56.65999985
C     9.27999973   8.64000034  57.63999939
C     8.01000023   8.21000004  57.31999969
C     7.73000002   7.59999990  56.06999969
C     8.75000000   7.42000008  55.15999603
C    10.03999901   7.99000025  55.38999939
C    14.11999893   8.84000015  56.18999863
C    14.84000015   8.52000046  55.00999832
C    16.22999954   8.42000008  55.02999878
C     6.38000011   7.02000046  55.70999908
H     5.74411201   7.67732286  55.11697769
H    11.06999969   7.30999994  53.50999832
H    11.78999996   9.47000027  57.90000153
H     9.46000004   9.11999989  58.59000397
H     7.20000029   8.26000023  58.04000092
H     8.63000011   6.90999985  54.20999908
H    16.80999947   8.15999985  54.15000153
H     5.86999989   6.63999987  56.60999680
H     6.58999968   6.06999969  55.20000076
S    13.76000023   6.10000038  50.90999985
C    11.14999962   5.55999994  51.47999573
C    12.46000099   5.31000042  51.83000183
C    12.93000031   4.53999996  52.94000244
C    11.98999977   4.05999994  53.83999634
C    10.64000034   4.30000019  53.52000427
C     9.70000076   3.76999998  54.45000076
C     8.36999989   3.75000000  54.09000015
C     7.88000011   4.42000008  52.94000244
C     8.78000069   5.07999992  52.14000320
C    10.18000031   5.09000015  52.39999771
C    14.35999966   4.69999981  53.13999939
C    14.92000008   5.46000004  52.09000015
C    16.21999931   5.97000027  52.14000320
C     6.38999987   4.44000006  52.70999908
H     6.10537243   3.67150640  51.99131775
H    10.93999958   6.11000013  50.56000137
H    12.27000046   3.35000014  54.61999893
H     9.92999935   3.25000000  55.38000107
H     7.63000011   3.40999985  54.79999924
H     8.47999954   5.63000011  51.25000000
H    16.68000031   6.52999973  51.32999802
H     5.89999962   4.48999977  53.69999695
H     6.28999996   5.40000010  52.18999863
S    17.70000076   4.51999998  55.52999878
C    20.29999924   5.44000053  54.84000397
C    18.94000053   5.40000010  54.61999893
C    18.43000031   5.86999989  53.36999893
C    19.19999886   6.47000027  52.38999939
C    20.58000183   6.54999971  52.70000076
C    21.48999977   7.04999971  51.72000122
C    22.84000015   7.13000011  51.95999908
C    23.42000008   6.67000008  53.16999817
C    22.57999802   6.15000010  54.12000275
C    21.18999863   6.01000023  53.88000107
C    17.00000000   5.61999989  53.23999786
C    16.46000099   4.85000038  54.31000137
C    15.14000034   4.42000008  54.27000046
C    24.92000198   6.81999969  53.34000015
H    25.24852180   6.62717295  54.36127090
H    20.69000053   5.00000000  55.76000214
H    18.86999893   6.75000000  51.39999771
H    21.04000092   7.46999979  50.81999969
H    23.50000000   7.57000017  51.20999908
H    22.95000076   5.92999983  55.12000275
H    14.65999985   3.91999984  55.11000061
H    25.29000092   7.79999971  53.02000046
H    25.34000015   6.02999973  52.70000076
