96

S    16.70999908   9.53999996  58.81999969
C    19.40999985   9.47000027  58.16999817
C    18.09999847   9.35000038  57.74000168
C    17.68000031   9.11000061  56.38999939
C    18.68000031   8.85000038  55.47000122
C    20.03000069   8.98999977  55.84000015
C    21.02999878   9.01000023  54.82999802
C    22.30999947   9.39999962  55.15999603
C    22.67000008   9.82999992  56.45999908
C    21.75000000   9.68999958  57.47000122
C    20.42000008   9.26999950  57.19999695
C    16.22999954   9.06000042  56.23000336
C    15.59000015   9.23999977  57.48000336
C    14.21000004   9.35999966  57.58999634
C    24.04000092  10.44000053  56.65000153
H    24.72798157   9.70946217  57.07555771
H    19.63000107  10.03000069  59.06999969
H    18.46999931   8.57999992  54.43000031
H    20.65000153   8.71999931  53.85000229
H    22.98999977   9.59000015  54.33000183
H    21.84000015  10.03000069  58.50000000
H    13.76000023   9.59999943  58.54999924
H    24.41999817  10.88999939  55.72999954
H    24.00000000  11.26999950  57.36000061
S    12.89999962   8.19000053  54.00000000
C    10.24000072   8.26000023  54.75000000
C    11.54000092   8.60000038  55.06000137
C    11.95000076   8.96000004  56.38000107
C    10.93999958   9.19000053  57.30999756
C     9.59000015   8.85000038  57.04999924
C     8.53999996   8.78999996  58.01000214
C     7.27999973   8.40999985  57.60000229
C     6.96000004   7.82999992  56.33999634
C     7.97999954   7.81000042  55.40999985
C     9.23999977   8.36999989  55.75000000
C    13.40000057   9.06999969  56.49000168
C    14.02999973   8.67000008  55.27999878
C    15.40999985   8.82999992  55.12000275
C     5.56999969   7.27999973  56.16000366
H     5.07462931   7.86029100  55.38156128
H    10.03999901   7.96999979  53.72000122
H    11.10000038   9.65999985  58.27000046
H     8.90999985   9.02999973  59.00000000
H     6.47000027   8.50000000  58.31999969
H     7.88000011   7.23999977  54.48999786
H    15.84000015   8.60999966  54.15000153
H     4.90000010   7.36999989  57.02999878
H     5.79999971   6.28000021  55.77999878
S    16.97000122  10.32999992  52.67000198
C    19.63000107  10.40999985  51.97000122
C    18.38000107   9.92999935  51.66999817
C    18.07999992   9.38000011  50.38000107
C    19.14999962   9.06000042  49.56999969
C    20.48000145   9.38000011  49.93000031
C    21.54999924   9.11000061  49.02999878
C    22.82999992   9.52000046  49.29999924
C    23.05000114  10.34000015  50.44000244
C    22.06000137  10.59000015  51.37000275
C    20.72999954  10.15999985  51.11000061
C    16.63999939   9.22999954  50.21999741
C    15.93999958   9.77999973  51.32999802
C    14.55999947   9.92000008  51.25999832
C    24.40000153  10.95000076  50.72999954
H    24.94780159  10.32394123  51.43431854
H    19.64999962  11.09000015  52.81999969
H    19.06999969   8.56000042  48.61000061
H    21.31999969   8.65999985  48.06000137
H    23.64999962   9.40999985  48.60000229
H    22.29000092  11.23999977  52.22000122
H    14.04000092  10.29999924  52.12999725
H    25.02000046  10.95000076  49.82999802
H    24.17000008  11.97000027  51.06999969
S    13.53999996   8.28999996  47.70000076
C    10.80999947   8.36999989  48.36000061
C    12.10999966   8.73000050  48.66000366
C    12.46999931   9.30000019  49.92000198
C    11.46999931   9.48000050  50.86999893
C    10.14000034   9.13000011  50.56999969
C     9.13000011   9.28999996  51.56000137
C     7.81000042   8.93999958  51.33999634
C     7.46999979   8.38000011  50.07999802
C     8.38999939   8.28999996  49.06999969
C     9.77000046   8.52999973  49.31000137
C    13.89999962   9.43000031  50.12000275
C    14.57999992   8.89000034  49.00000000
C    15.97000027   8.82999992  49.06000137
C     6.11000013   7.77999973  49.81999969
H     5.69991302   8.33856583  48.97861099
H    10.52000046   7.83999968  47.44999695
H    11.68000031   9.89999962  51.84999847
H     9.34000015   9.68999958  52.54000092
H     7.07000017   8.82000065  52.12999725
H     8.10999966   7.92000008  48.08000183
H    16.47999954   8.51000023  48.15000153
H     5.55000019   7.90000010  50.76000214
H     6.34999990   6.74000025  49.56999969
