96

S    16.69999886   9.15000057  58.88000107
C    19.42000008   9.07999992  58.09999847
C    18.07999992   8.97999954  57.77000046
C    17.71999931   8.69999981  56.40999603
C    18.71000099   8.63000011  55.45000076
C    20.07999802   8.75000000  55.77999878
C    21.07000160   8.60999966  54.77000427
C    22.40999985   8.80000019  55.05000305
C    22.79999924   9.13000011  56.37000275
C    21.86000061   9.11999989  57.37999725
C    20.45999908   9.00000000  57.14000320
C    16.27000046   8.61999989  56.31999969
C    15.57000065   8.85000038  57.54000092
C    14.19000053   8.93000031  57.63999939
C    24.25000000   9.39000034  56.69000244
H    24.65690613   8.59760571  57.31820297
H    19.73999977   8.98999977  59.13999939
H    18.38999939   8.39999962  54.43999863
H    20.69999886   8.23000050  53.81999969
H    23.13999939   8.51000023  54.31000137
H    22.11000061   9.30000019  58.41999817
H    13.67000008   9.09000015  58.57999802
H    24.70999908   9.56999969  55.70000076
H    24.25000000  10.36999893  57.18999863
S    13.12999916   7.97999954  53.90999603
C    10.52999973   7.57000017  54.56999969
C    11.75000000   8.01000023  55.02999878
C    12.03999996   8.50000000  56.33999634
C    11.00000000   8.39999962  57.25000000
C     9.72000027   8.01000023  56.79000092
C     8.60999966   8.15999985  57.65999603
C     7.32999992   7.88999987  57.23999786
C     7.07000017   7.26999998  55.98999786
C     8.09000015   7.23000002  55.06999969
C     9.40999985   7.59999990  55.45000076
C    13.48000050   8.71000004  56.45000076
C    14.19999981   8.45000076  55.26000214
C    15.57999992   8.36000061  55.13999939
C     5.65999985   6.89000034  55.58000183
H     5.28213644   7.51026726  54.76723480
H    10.34000015   7.36000013  53.53000259
H    11.03999996   8.61999989  58.30999756
H     8.69999981   8.61999989  58.64999771
H     6.44000006   8.07999992  57.84000015
H     7.90999985   7.03999996  54.02000046
H    16.04999924   7.90999985  54.27000046
H     5.14999962   7.11999989  56.52000046
H     5.61999989   5.79999971  55.44000244
S    16.93000031  10.13000011  52.77000046
C    19.63999939  10.08999920  52.16999817
C    18.38000107   9.65999985  51.84999847
C    18.09999847   8.90999985  50.65999985
C    19.13999939   8.69999981  49.77000427
C    20.43000031   9.21000004  50.05000305
C    21.45999908   8.90999985  49.10999680
C    22.72999954   9.31999969  49.40999985
C    23.06999969   9.92999935  50.65000153
C    22.09000015  10.21000004  51.58000183
C    20.73999786   9.86999989  51.29000092
C    16.65999985   8.78999996  50.47000122
C    15.92000008   9.48999977  51.45999908
C    14.53999996   9.59999943  51.38000107
C    24.47999954  10.42000008  50.86999893
H    24.97846794   9.78623199  51.60346222
H    19.78999901  10.70000076  53.04999924
H    18.90999985   8.02999973  48.95000076
H    21.35999870   8.38999939  48.15000153
H    23.47999954   9.13000011  48.64999771
H    22.22999954  10.82999992  52.45999908
H    13.96999931   9.89000034  52.25999832
H    24.90999985  10.39999962  49.86000061
H    24.36000061  11.46999931  51.18000031
S    13.56999969   7.73000002  48.00000000
C    10.88999939   7.40999985  48.81999969
C    12.15999985   7.88000011  49.06999969
C    12.44999981   8.64999962  50.24000168
C    11.44000053   9.00000000  51.11999893
C    10.11999989   8.56000042  50.86000061
C     9.00000000   8.90999985  51.65999985
C     7.69999981   8.53999996  51.38999939
C     7.44000006   7.72000027  50.27000046
C     8.50000000   7.31999969  49.48999786
C     9.85000038   7.73999977  49.71000290
C    13.86999989   8.97000027  50.33000183
C    14.61999989   8.45000076  49.23999786
C    16.00000000   8.36000061  49.31000137
C     6.01999998   7.49000025  49.79999924
H     5.65742493   8.16538525  49.02508163
H    10.67999935   6.71999979  48.00000000
H    11.69999981   9.72999954  51.88000107
H     9.22000027   9.50000000  52.54000092
H     6.80000019   8.98999977  51.81000137
H     8.47000027   6.80000019  48.53000259
H    16.57999992   8.15999985  48.40999985
H     5.40999985   7.53000021  50.70999908
H     5.84000015   6.47000027  49.45000076
