96

S    17.36999893   9.35999966  58.69999695
C    20.10000038   9.77000046  58.04999924
C    18.81999969   9.40999985  57.69000244
C    18.51000023   8.97999954  56.36000061
C    19.52999878   8.80999947  55.44000244
C    20.86000061   9.22000027  55.70000076
C    21.87999916   9.26000023  54.69999695
C    23.09999847   9.84000015  55.00000000
C    23.36999893  10.24000072  56.32999802
C    22.34000015  10.34000015  57.25000000
C    21.05999947   9.77000046  57.01000214
C    17.07999992   8.84000015  56.13999939
C    16.31000137   9.00000000  57.31999969
C    14.92000008   9.00000000  57.37999725
C    24.79000092  10.60999966  56.69000244
H    25.15375328  10.07506752  57.56728745
H    20.20000076  10.21999931  59.02999878
H    19.30999947   8.47999954  54.43000031
H    21.60000038   8.92000008  53.70999908
H    23.88999939   9.78999996  54.26000214
H    22.55000114  10.77000046  58.22999954
H    14.35999966   9.21000004  58.27999878
H    25.43000031  10.38000011  55.84000015
H    24.84999847  11.64999962  57.04000092
S    13.86999989   7.92999983  53.77999878
C    11.13999939   7.72000027  54.41999817
C    12.43000031   7.97999954  54.81999969
C    12.71999931   8.47999954  56.12999725
C    11.67000008   8.67000008  57.00000000
C    10.34000015   8.27000046  56.68000031
C     9.26000023   8.32999992  57.60000229
C     8.00000000   7.83999968  57.30999756
C     7.73999977   7.50999975  55.96000290
C     8.73000050   7.49000025  55.00000000
C    10.08999920   7.73999977  55.37000275
C    14.15999985   8.64000034  56.25999832
C    14.94999981   8.38999939  55.11000061
C    16.34000015   8.46000004  55.00999832
C     6.34000015   7.00999975  55.66999817
H     5.80701542   7.71353960  55.03042221
H    10.88000107   7.59000015  53.36999893
H    11.84999943   9.13000011  57.95999908
H     9.48999977   8.71999931  58.59000397
H     7.27999973   7.73999977  58.11999893
H     8.56999969   7.26999998  53.95000076
H    16.87999916   8.27000046  54.09000015
H     5.88000011   6.94000006  56.65999985
H     6.51000023   5.97000027  55.38999939
S    17.51000023  10.19000053  52.54000092
C    20.17999840  10.44000053  51.70999908
C    18.89000130  10.03000069  51.44000244
C    18.59000015   9.48000050  50.14999771
C    19.60000038   9.35000038  49.20999908
C    20.92000008   9.76000023  49.47000122
C    21.98999786   9.75000000  48.52000427
C    23.26999855  10.11999989  48.85000229
C    23.52999878  10.57999992  50.15999603
C    22.55000114  10.65999985  51.13999939
C    21.24000168  10.22999954  50.79000092
C    17.13999939   9.36999989  50.07999802
C    16.42000008   9.56999969  51.27999878
C    15.03999901   9.68000031  51.38999939
C    24.90999985  11.09000015  50.51000214
H    25.40180969  10.39861298  51.19425964
H    20.31999969  10.93000031  52.65999603
H    19.29000092   9.18000031  48.18000031
H    21.80999947   9.50000000  47.48000336
H    24.05999947  10.08999920  48.09000015
H    22.65999985  11.09000015  52.12999725
H    14.44000053  10.11000061  52.18999863
H    25.51000214  11.26999950  49.61000061
H    24.89999962  12.05999947  51.02000427
S    13.94999981   8.57999992  47.75000000
C    11.21999931   8.56999969  48.47000122
C    12.53000069   8.82000065  48.79000092
C    12.84999943   9.39999962  50.06000137
C    11.87999916   9.61000061  51.02000427
C    10.55999947   9.15000057  50.77999878
C     9.51000023   9.18000031  51.73999786
C     8.21000004   8.85000038  51.44000244
C     7.92000008   8.23999977  50.19000244
C     8.88000011   8.25000000  49.20999908
C    10.21000004   8.69000053  49.45999908
C    14.28999996   9.47000027  50.21999741
C    15.03000069   9.04999924  49.08000183
C    16.39999962   8.89000034  48.97999573
C     6.51999998   7.85000038  49.78000259
H     6.03094292   8.61548138  49.17753983
H    10.98000050   8.19999981  47.48000336
H    12.15999985   9.82999992  52.04999924
H     9.64999962   9.50000000  52.77000046
H     7.37999964   9.19999981  52.04999924
H     8.59000015   7.95000029  48.20999908
H    16.87000084   8.52000046  48.08000183
H     5.98999977   7.68000031  50.72000122
H     6.48999977   6.90000010  49.23999786
