96

S    17.07999992   9.31999969  58.97999573
C    19.79999924   9.52999973  58.22999954
C    18.48999977   9.22999954  57.90999985
C    18.20000076   8.76999950  56.58000183
C    19.19000053   8.46000004  55.65999985
C    20.50000000   8.86999989  55.97999954
C    21.57999992   8.67000008  55.06999969
C    22.86999893   9.09000015  55.30000305
C    23.18000031   9.59999943  56.59000015
C    22.20000076   9.70000076  57.55000305
C    20.82999992   9.40999985  57.27000427
C    16.77000046   8.63000011  56.38999939
C    16.05999947   8.89999962  57.58999634
C    14.68000031   9.02000046  57.69000244
C    24.61999893   9.92000008  56.93999863
H    24.99641800   9.32341480  57.77095795
H    20.13999939   9.84000015  59.20999908
H    18.86000061   8.10999966  54.68000031
H    21.34000015   8.39999962  54.03999710
H    23.62999916   9.07999992  54.52999878
H    22.36000061  10.03000069  58.56999969
H    14.19999981   9.11000061  58.66000366
H    25.38000107   9.88000011  56.14999771
H    24.47000122  10.97000027  57.23999786
S    13.57999992   8.17000008  53.96999741
C    10.86999989   8.05999947  54.68999863
C    12.13999939   8.50000000  54.95999908
C    12.51999950   8.82999992  56.30000305
C    11.50000000   8.97999954  57.22000122
C    10.15999985   8.56999969  56.97999954
C     9.11000061   8.73000050  57.91999817
C     7.82000017   8.43000031  57.54000092
C     7.50000000   7.92000008  56.25999832
C     8.50000000   7.73999977  55.33000183
C     9.84000015   8.05999947  55.66999817
C    13.96000004   8.92000008  56.49000168
C    14.67000008   8.57999992  55.31000137
C    16.04999924   8.36999989  55.21999741
C     6.07999992   7.46000004  56.03000259
H     5.63079262   7.98764038  55.18862915
H    10.69000053   7.79999971  53.64999771
H    11.72000027   9.27999973  58.23999786
H     9.26000023   9.19999981  58.88999939
H     6.98999977   8.64999962  58.20999908
H     8.31999969   7.36999989  54.31999969
H    16.50000000   8.13000011  54.26000214
H     5.45000029   7.73000002  56.88000107
H     5.96000004   6.37000036  56.03000259
S    17.35999870  10.10000038  52.63999939
C    20.06999969  10.06999969  52.06999969
C    18.79999924   9.73999977  51.65999985
C    18.46999931   9.27999973  50.34000015
C    19.47000122   9.30000019  49.38999939
C    20.79000092   9.63999939  49.75999832
C    21.80999947   9.63999939  48.75999832
C    23.12000084   9.89000034  49.06999969
C    23.44000053  10.19999981  50.41999817
C    22.47999954  10.26000023  51.39999771
C    21.11999893   9.92000008  51.12999725
C    17.02000046   9.17000008  50.18000031
C    16.28999901   9.52999973  51.33999634
C    14.89999962   9.55000019  51.39999771
C    24.84999847  10.52999973  50.83000183
H    25.28639603   9.94336796  51.63840866
H    20.34000015  10.36999893  53.08000183
H    19.25000000   9.04999924  48.34999847
H    21.47000122   9.42000008  47.76000214
H    23.94000053   9.82999992  48.34999847
H    22.63999939  10.70000076  52.37999725
H    14.42000008   9.94000053  52.29999924
H    25.45000076  10.46000004  49.91000366
H    24.92000198  11.59000015  51.11000061
S    13.81999969   8.67000008  47.63999939
C    11.07999992   8.67999935  48.29999924
C    12.39999962   8.80000019  48.68999863
C    12.79000092   9.27999973  49.98000336
C    11.80999947   9.51000023  50.91999817
C    10.44999981   9.21000004  50.63000107
C     9.43000031   9.26999950  51.62000275
C     8.11999989   9.03999996  51.30000305
C     7.76999998   8.84000015  49.93999863
C     8.71999931   8.64000034  48.95999908
C    10.08999920   8.84000015  49.29000092
C    14.22999954   9.35000038  50.19000244
C    14.91000080   9.01000023  48.99000168
C    16.29999924   8.93999958  49.01000214
C     6.28999996   8.73000050  49.64000320
H     6.06998110   9.01389503  48.61087799
H    10.80000019   8.32999992  47.30999756
H    12.06999969   9.72999954  51.95000076
H     9.72000027   9.55000019  52.63999939
H     7.30999994   9.22000027  52.01000214
H     8.43000031   8.38999939  47.94000244
H    16.79000092   8.56000042  48.11000061
H     5.66999960   9.30999947  50.33000183
H     6.02999973   7.68000031  49.82999802
