96

S    16.98999977   9.19000053  58.99000168
C    19.68000031   9.36999989  58.22999954
C    18.37000084   9.13999939  57.88000107
C    18.02000046   8.64999962  56.58000183
C    19.02000046   8.39999962  55.65999985
C    20.36999893   8.67999935  55.97000122
C    21.45000076   8.53999996  55.05000305
C    22.72999954   8.94999981  55.34000015
C    23.01000214   9.48999977  56.63000107
C    22.06000137   9.47000027  57.63000107
C    20.71000099   9.17000008  57.28000259
C    16.56999969   8.64000034  56.40999603
C    15.88999939   8.89000034  57.63000107
C    14.50000000   8.96000004  57.67000198
C    24.40999985   9.98999977  56.86000061
H    24.88632393   9.37148857  57.62069702
H    19.86999893   9.72000027  59.23999786
H    18.70000076   7.94000053  54.72999954
H    21.28000069   8.05000019  54.09999847
H    23.46999931   8.84000015  54.54999924
H    22.23999977   9.85999966  58.62999725
H    14.11999893   9.23999977  58.64999771
H    25.02000046   9.98000050  55.94999695
H    24.47999954  11.02000046  57.22999954
S    13.31999969   7.90000010  54.02000046
C    10.67000008   7.82000017  54.78000259
C    11.95000076   8.19000053  55.11000061
C    12.28999996   8.64000034  56.43000031
C    11.28000069   8.84000015  57.35000229
C     9.94999981   8.42000008  57.09000015
C     8.80999947   8.55000019  57.94000244
C     7.57000017   8.05000019  57.62000275
C     7.36000013   7.35000038  56.39999771
C     8.39999962   7.30000019  55.51000214
C     9.70000076   7.81000042  55.81999969
C    13.73999977   8.64999962  56.52999878
C    14.42999935   8.36999989  55.31999969
C    15.80999947   8.40999985  55.26000214
C     5.97000027   6.85999966  56.04999924
H     5.29141760   7.61715508  55.65713501
H    10.34000015   7.59000015  53.76999664
H    11.47999954   9.11000061  58.37999725
H     9.02000046   8.92000008  58.94000244
H     6.80000019   8.14000034  58.36999893
H     8.31999969   6.80000019  54.54999924
H    16.32999992   7.99000025  54.40000153
H     5.40000010   6.48000002  56.90999985
H     6.21999979   6.07999992  55.31999969
S    13.52000046   5.89999962  51.03000259
C    10.85000038   5.27999973  51.83000183
C    12.22000027   5.19999981  52.01000214
C    12.79999924   4.56999969  53.15000153
C    11.94000053   4.00000000  54.08000183
C    10.52999973   4.09999990  53.95999908
C     9.59999943   3.53999996  54.88999939
C     8.23999977   3.61999989  54.71000290
C     7.73000002   4.07999992  53.46000290
C     8.56999969   4.71000004  52.57999802
C     9.98000050   4.69999981  52.77999878
C    14.25000000   4.67000008  53.25000000
C    14.80000019   5.36000013  52.14000320
C    16.09000015   5.88000011  52.16999817
C     6.26999950   3.86000013  53.13999939
H     5.99221611   3.73891473  52.09296799
H    10.50000000   5.61999989  50.86000061
H    12.27000046   3.61999989  55.04000092
H     9.96000004   3.05000019  55.79000092
H     7.55999994   3.25999999  55.47000122
H     8.30000019   5.18000031  51.63000107
H    16.51000023   6.25999975  51.24000168
H     5.91000032   3.01999998  53.74000168
H     5.77000046   4.77999973  53.48999786
S    17.53999901   4.28999996  55.56999969
C    20.13000107   4.84000015  54.86999893
C    18.81000137   5.05999994  54.59000015
C    18.34000015   5.46999979  53.29999924
C    19.27999878   5.86000013  52.36999893
C    20.65999985   5.80999947  52.67000198
C    21.63000107   6.50000000  51.88000107
C    22.96999931   6.30000019  52.11000061
C    23.38999939   5.69000006  53.31999969
C    22.47999954   5.28999996  54.27000046
C    21.09999847   5.22000027  53.90999603
C    16.87999916   5.53999996  53.27000046
C    16.36000061   4.76000023  54.34000015
C    15.05000019   4.28999996  54.33000183
C    24.86000061   5.66999960  53.66000366
H    25.05176544   5.79784298  54.72536087
H    20.40999985   4.44999981  55.84999847
H    18.98999977   6.34999990  51.44000244
H    21.38999939   7.03999996  50.97000122
H    23.57000160   6.75000000  51.32999802
H    22.73999977   5.07999992  55.30000305
H    14.65000057   3.76999998  55.20000076
H    25.43999863   6.44999981  53.13999939
H    25.29999924   4.71000004  53.34999847
