96

S    16.72999954   9.73999977  59.20000076
C    19.47999954   9.72000027  58.43999863
C    18.15999985   9.43000031  58.20000076
C    17.85000038   9.02000046  56.86000061
C    18.82999992   8.76000023  55.91999817
C    20.17999840   9.11999989  56.16000366
C    21.25000000   8.75000000  55.31000137
C    22.53999901   9.13999939  55.61000061
C    22.86999893   9.75000000  56.84999847
C    21.86000061   9.96999931  57.76000214
C    20.51000214   9.63999939  57.45999908
C    16.40999985   8.93000031  56.65999985
C    15.70000076   9.22000027  57.84999847
C    14.30999947   9.23999977  57.90000153
C    24.27000046  10.17000008  57.23999786
H    24.81834984   9.26557636  57.50349426
H    19.78999901   9.98999977  59.43999863
H    18.68999863   8.23999977  54.98000336
H    21.09000015   8.06999969  54.47000122
H    23.28000069   9.00000000  54.82999802
H    22.23999977  10.44999981  58.66000366
H    13.73999977   9.35999966  58.81999969
H    24.73999977  10.65999985  56.38000107
H    24.13999939  10.88999939  58.06000137
S    13.22999954   7.92000008  54.31000137
C    10.57999992   7.53999996  55.02999878
C    11.84000015   7.94000053  55.40000153
C    12.15999985   8.56999969  56.65000153
C    11.10999966   8.67999935  57.55000305
C     9.80000019   8.27000046  57.22999954
C     8.73999977   8.23999977  58.18000031
C     7.48000050   7.88000011  57.77000046
C     7.13999987   7.59000015  56.42000198
C     8.15999985   7.59000015  55.50000000
C     9.50000000   7.90000010  55.86999893
C    13.57999992   8.84000015  56.77999878
C    14.30999947   8.43999958  55.61999893
C    15.69000053   8.56000042  55.52000046
C     5.68000031   7.51999950  56.00999832
H     5.43025303   8.12652874  55.13945389
H    10.48999977   6.96000004  54.10999680
H    11.44000053   9.19999981  58.44999695
H     8.88000011   8.47000027  59.22999954
H     6.76000023   8.02999973  58.56999969
H     7.94000053   7.26999998  54.47999954
H    16.26000023   8.14999962  54.68999863
H     5.17000008   7.90999985  56.90000153
H     5.47999954   6.44999981  55.84999847
S    13.50000000   5.86999989  50.98999786
C    10.82999992   5.25000000  51.77000046
C    12.20000076   5.17000008  51.95999908
C    12.71999931   4.69000006  53.20999908
C    11.84999943   4.13999987  54.13999939
C    10.44999981   4.13999987  53.93000031
C     9.56999969   3.60000014  54.91000366
C     8.19999981   3.70000005  54.81999969
C     7.75000000   4.18000031  53.55999756
C     8.52000046   4.67000008  52.52999878
C     9.92999935   4.72000027  52.72999573
C    14.15999985   4.81999969  53.34999847
C    14.70999908   5.51000023  52.23999786
C    16.03999901   5.92999983  52.19999695
C     6.25000000   4.19999981  53.36000061
H     5.87224102   3.36607885  52.76841354
H    10.42000008   5.79999971  50.93000031
H    12.25999928   3.84000015  55.11000061
H    10.00000000   3.07999992  55.77000046
H     7.53999996   3.28999996  55.56999969
H     8.11999989   4.92999983  51.55000305
H    16.32999992   6.56000042  51.36000061
H     5.84000015   4.42000008  54.34999847
H     6.07999992   5.10999966  52.77000046
S    17.53999901   4.13999987  55.40000153
C    20.15000153   4.88999987  54.79000092
C    18.81000137   4.98000002  54.47999954
C    18.35000038   5.77000046  53.37999725
C    19.20999908   6.42000008  52.51999664
C    20.59999847   6.32999992  52.77000046
C    21.61000061   6.88000011  51.91999817
C    22.95000076   6.77999973  52.18999863
C    23.39999962   6.02999973  53.29999924
C    22.43999863   5.44000053  54.09000015
C    21.02999878   5.53999996  53.88999939
C    16.90999985   5.60999966  53.23999786
C    16.34000015   4.85000038  54.29999924
C    15.03999901   4.35999966  54.33000183
C    24.86000061   5.64000034  53.39000320
H    25.30060005   5.77502251  54.37779999
H    20.50000000   4.03999996  55.38000107
H    18.86000061   7.11000013  51.76000214
H    21.24000168   7.32999992  51.00000000
H    23.71000099   6.96000004  51.43000031
H    22.73999977   4.77999973  54.89999771
H    14.68999958   3.67000008  55.08999634
H    25.36000061   6.28000021  52.65999603
H    24.84000015   4.56999969  53.13999939
