96

S    16.77999878   8.97000027  58.86000061
C    19.37999916   9.61000061  58.02000046
C    18.19000053   8.96000004  57.78999710
C    17.77000046   8.45000076  56.51000214
C    18.78999901   8.47999954  55.58000183
C    20.07999802   9.00000000  55.81999969
C    21.11000061   8.89999962  54.84000397
C    22.39000130   9.36999989  55.02999878
C    22.72999954   9.86999989  56.31999969
C    21.77999878   9.98000050  57.30999756
C    20.42000008   9.63999939  57.05999756
C    16.32999992   8.43000031  56.29000092
C    15.67000008   8.67999935  57.50999832
C    14.28999996   8.78999996  57.65999603
C    24.18000031  10.10000038  56.65000153
H    24.53532982   9.48172569  57.47436523
H    19.52000046   9.98999977  59.02999878
H    18.71000099   7.97999954  54.61999893
H    20.92000008   8.32999992  53.94000244
H    23.06999969   9.11000061  54.22999954
H    21.90999985  10.14999962  58.37999725
H    13.81000042   8.96000004  58.61999893
H    24.77999878   9.85000038  55.77000046
H    24.40999985  11.14999962  56.86999893
S    13.09000015   8.01000023  53.92000198
C    10.39999962   7.83999968  54.58000183
C    11.68000031   8.14999962  54.99000168
C    12.05000019   8.39999962  56.35000229
C    11.03000069   8.47999954  57.28000259
C     9.68000031   8.25000000  56.91999817
C     8.64000034   8.36999989  57.88999939
C     7.37999964   7.95000029  57.54000092
C     7.07999992   7.44999981  56.25000000
C     8.10000038   7.26000023  55.34999847
C     9.39999962   7.82000017  55.58000183
C    13.48000050   8.56000042  56.53999710
C    14.14000034   8.27999973  55.31999969
C    15.52000046   8.30999947  55.14999771
C     5.65000010   7.09999990  55.90000153
H     5.37244749   7.67645502  55.01752472
H    10.26000023   7.46999979  53.56999969
H    11.26999950   8.82000065  58.29000092
H     8.93999958   8.65999985  58.88999939
H     6.61999989   8.07999992  58.29999924
H     7.90999985   6.85999966  54.36000061
H    16.01000023   8.11999989  54.20000076
H     4.94000006   7.02000046  56.72999954
H     5.75000000   6.05999994  55.56000137
S    13.53000069   6.24000025  50.98999786
C    10.90999985   5.55000019  51.56000137
C    12.23000050   5.46999979  51.91999817
C    12.68000031   4.79999971  53.09999847
C    11.73999977   4.18000031  53.88999939
C    10.36000061   4.25000000  53.54999924
C     9.42000008   3.76999998  54.50000000
C     8.07999992   3.79999995  54.18000031
C     7.63000011   4.18000031  52.88999939
C     8.53999996   4.76999998  52.04000092
C     9.92000008   4.88999987  52.34000397
C    14.11000061   5.05999994  53.27000046
C    14.73000050   5.75999975  52.21000290
C    16.09000015   6.05999994  52.12999725
C     6.14000034   4.32999992  52.68000031
H     5.76313448   4.09534788  51.68450546
H    10.62000084   5.98000002  50.61000061
H    12.01000023   3.98000002  54.93000031
H     9.81999969   3.28000021  55.38999939
H     7.30000019   3.49000001  54.86999893
H     8.13000011   5.14999962  51.11000061
H    16.47999954   6.34999990  51.17000198
H     5.59999990   3.71000004  53.40999985
H     5.78999996   5.31000042  53.00000000
S    17.50000000   4.46999979  55.54999924
C    20.19000053   4.97000027  54.68999863
C    18.81999969   5.01999950  54.50000000
C    18.29000092   5.58000040  53.29999924
C    19.12999916   6.05000019  52.30999756
C    20.53999901   6.01000023  52.49000168
C    21.40000153   6.65999985  51.55000305
C    22.73999977   6.74000025  51.84000015
C    23.26000023   6.32000017  53.09000015
C    22.44999886   5.65999985  53.97999573
C    21.07999992   5.42000008  53.68000031
C    16.84000015   5.65999985  53.25000000
C    16.28000069   4.98000002  54.36000061
C    14.92000008   4.67999983  54.34999847
C    24.71999931   6.52999973  53.43999863
H    24.95444870   6.32397079  54.48435593
H    20.59999847   4.67000008  55.65000153
H    18.77000046   6.61000013  51.45999908
H    20.98999977   7.18999958  50.70000076
H    23.50000000   7.22000027  51.23000336
H    22.70999908   5.35000038  54.99000168
H    14.51000023   4.13000011  55.19000244
H    25.09000015   7.46000004  53.00000000
H    25.10000038   5.65000010  52.90999985
