96

S    16.61999893   9.26999950  58.97999573
C    19.26000023   9.43000031  58.09999847
C    17.95999908   9.07999992  57.84000015
C    17.59000015   8.61999989  56.52999878
C    18.61999893   8.38999939  55.63999939
C    19.96999931   8.75000000  55.84999847
C    21.07000160   8.52999973  54.98000336
C    22.37999916   8.76000023  55.34000015
C    22.67999840   9.28999996  56.62000275
C    21.64999962   9.55000019  57.50000000
C    20.29000092   9.35000038  57.11999893
C    16.13999939   8.65999985  56.46999741
C    15.47000027   9.07999992  57.63999939
C    14.07999992   9.06999969  57.70999908
C    24.06999969   9.81000042  56.90999985
H    24.50477982   9.41798592  57.82945251
H    19.50000000   9.75000000  59.10999680
H    18.32999992   7.73000002  54.82999802
H    20.98999977   7.97999954  54.03999710
H    23.15000153   8.48999977  54.61999893
H    21.87000084  10.03000069  58.44999695
H    13.67000008   9.13999939  58.70999908
H    24.84000015   9.72000027  56.12999725
H    23.88999939  10.88000107  57.05999756
S    12.90999985   8.09000015  54.01000214
C    10.24000072   7.81000042  54.75000000
C    11.51000023   8.22000027  55.08999634
C    11.87000084   8.64000034  56.40999603
C    10.86999989   8.53999996  57.36999893
C     9.52999973   8.23000050  57.05999756
C     8.50000000   8.11999989  58.04000092
C     7.20000029   7.90999985  57.65999603
C     6.86999989   7.51999950  56.33999634
C     7.86000013   7.53000021  55.38000107
C     9.21000004   7.79999971  55.72999954
C    13.28999996   8.89000034  56.56000137
C    13.96999931   8.45000076  55.40000153
C    15.34999943   8.28999996  55.37000275
C     5.46000004   7.07000017  56.00999832
H     5.02702188   7.73721266  55.26470947
H    10.10000038   7.30999994  53.79000092
H    11.16000080   8.73999977  58.40000153
H     8.78999996   8.38000011  59.06000137
H     6.34000015   8.00000000  58.33000183
H     7.68000031   7.21000004  54.36000061
H    15.80999947   7.94000053  54.45000076
H     4.79999971   6.98999977  56.88000107
H     5.61999989   6.05000019  55.65000153
S    13.27000046   5.92000008  51.11999893
C    10.57999992   5.19999981  51.72000122
C    11.92999935   5.13000011  51.97000122
C    12.35000038   4.53000021  53.20000076
C    11.49000072   3.91000009  54.08000183
C    10.11999989   3.91000009  53.74000168
C     9.15000057   3.35999990  54.62999725
C     7.82000017   3.53999996  54.34999847
C     7.34000015   4.19999981  53.18999863
C     8.23999977   4.67000008  52.25999832
C     9.63000011   4.55000019  52.54000092
C    13.78999901   4.61000013  53.40999985
C    14.39000034   5.38999987  52.38999939
C    15.71000004   5.79999971  52.50999832
C     5.84000015   4.38000011  53.11000061
H     5.41981697   4.16634750  52.12719727
H    10.26999950   5.92000008  50.97000122
H    11.78999996   3.52999973  55.06000137
H     9.43000031   2.87999988  55.56999969
H     7.03999996   3.25000000  55.05000305
H     7.86999989   5.23999977  51.42000198
H    16.13999939   6.37000036  51.69000244
H     5.31000042   3.84000015  53.90999603
H     5.72000027   5.42000008  53.43000031
S    17.07999992   4.03999996  55.81999969
C    19.77000046   4.48999977  55.15999603
C    18.44000053   4.65999985  54.86000061
C    17.97999954   5.32999992  53.68999863
C    18.95000076   5.66999960  52.77000046
C    20.34000015   5.65000010  53.06000137
C    21.31999969   6.14000034  52.15000153
C    22.65000153   6.00000000  52.48000336
C    23.09999847   5.31000042  53.62999725
C    22.14999962   4.98000002  54.56999969
C    20.75000000   5.07000017  54.31000137
C    16.53000069   5.27999973  53.52000427
C    15.93999958   4.48999977  54.54000092
C    14.59000015   4.17000008  54.47999954
C    24.56000137   4.94000006  53.80000305
H    25.05247498   5.50384712  54.59224319
H    20.12000084   3.94000006  56.03000259
H    18.71000099   6.19999981  51.84999847
H    21.02000046   6.61000013  51.22000122
H    23.36000061   6.09000015  51.66999817
H    22.29000092   4.33999968  55.44000244
H    14.17000008   3.68000007  55.34999847
H    25.19000053   5.00999975  52.90000153
H    24.51999855   3.84999990  53.95999908
