96

S    17.29999924   9.84000015  58.67000198
C    19.98999977  10.15999985  57.81999969
C    18.71999931   9.65999985  57.62000275
C    18.32999992   9.04999924  56.38999939
C    19.34000015   8.92000008  55.45999908
C    20.69999886   9.26000023  55.68000031
C    21.75000000   8.93000031  54.78000259
C    23.05000114   9.26000023  55.10000229
C    23.43000031   9.82999992  56.33999634
C    22.39999962  10.29000092  57.11999893
C    21.04000092   9.96000004  56.88999939
C    16.90000153   8.84000015  56.25999832
C    16.20000076   9.26000023  57.42000198
C    14.81999969   9.47000027  57.43000031
C    24.89999962  10.08999920  56.63000107
H    25.17000008   9.75605392  57.63183975
H    20.31999969  10.50000000  58.80000305
H    19.04000092   8.60000038  54.45999908
H    21.51000023   8.51000023  53.81000137
H    23.78000069   8.89000034  54.38000107
H    22.57999802  10.77000046  58.08000183
H    14.26000023   9.77999973  58.30999756
H    25.52999878   9.55000019  55.90999985
H    25.13000107  11.13999939  56.44000244
S    13.75000000   8.10000038  53.88000107
C    11.00999928   8.01999950  54.59999847
C    12.30999947   8.36000061  54.88999939
C    12.65999985   9.06000042  56.07999802
C    11.65999985   9.31999969  57.00000000
C    10.31000042   8.94999981  56.76000214
C     9.28999996   9.13000011  57.72999573
C     8.03999996   8.59000015  57.49000168
C     7.67000008   7.97999954  56.26999664
C     8.64000034   7.82999992  55.31000137
C     9.96999931   8.30000019  55.52999878
C    14.09999943   9.11999989  56.29000092
C    14.84000015   8.71999931  55.13999939
C    16.21999931   8.59000015  55.06000137
C     6.32000017   7.34000015  56.03000259
H     5.54666233   8.05657864  55.75329971
H    10.80999947   7.57000017  53.62999725
H    11.95000076   9.77000046  57.95000076
H     9.51000023   9.56999969  58.69999695
H     7.34000015   8.43999958  58.29999924
H     8.42000008   7.40999985  54.34000015
H    16.72999954   8.34999943  54.13000107
H     6.03999996   6.65000010  56.84000015
H     6.65999985   6.77999973  55.15999603
S    17.54999924  10.57000065  52.68000031
C    20.26000023  10.54999924  52.12999725
C    18.97999954  10.36999893  51.65999985
C    18.71000099   9.65999985  50.45000076
C    19.73999977   9.19000053  49.65000153
C    21.04999924   9.55999947  50.04000092
C    22.19000053   9.25000000  49.25000000
C    23.44000053   9.73999977  49.54000092
C    23.69999886  10.34000015  50.79999924
C    22.65999985  10.62999916  51.65000153
C    21.34000015  10.27999973  51.25000000
C    17.29999924   9.31999969  50.34000015
C    16.54999924   9.81999969  51.43000031
C    15.15999985   9.72999954  51.46999741
C    25.13999939  10.52999973  51.24000168
H    25.56456566   9.59595013  51.60795975
H    20.43999863  10.85999966  53.15999985
H    19.60000038   8.48999977  48.81999969
H    22.03000069   8.69000053  48.33000183
H    24.18999863   9.55999947  48.77999878
H    22.73999977  10.98000050  52.68000031
H    14.65999985  10.17000008  52.32999802
H    25.69999886  10.82999992  50.34999847
H    25.15000153  11.38000011  51.93000031
S    14.11999893   8.13000011  48.00000000
C    11.36999989   8.28999996  48.52000427
C    12.67000008   8.45000076  48.95999908
C    13.02999973   8.96000004  50.25000000
C    12.02999973   9.13000011  51.18999863
C    10.67999935   8.89999962  50.81999969
C     9.53999996   9.11999989  51.65000153
C     8.23999977   8.85999966  51.29000092
C     7.96999979   8.38000011  49.98000336
C     9.01000023   8.36000061  49.06999969
C    10.36000061   8.63000011  49.45000076
C    14.47000027   9.11999989  50.41999817
C    15.21000004   8.67000008  49.29999924
C    16.60000038   8.71999931  49.29000092
C     6.58999968   7.92999983  49.58000183
H     6.07829237   8.69045353  48.99011612
H    11.23999977   7.65999985  47.63999939
H    12.25000000   9.64999962  52.11999893
H     9.55999947   9.59999943  52.63000107
H     7.46000004   9.11000061  52.01000214
H     8.94999981   8.01000023  48.04999924
H    17.17000008   8.30000019  48.47000122
H     6.05000019   7.65999985  50.50000000
H     6.71000004   7.03000021  48.96999741
