96

S    16.73999977   9.43000031  58.88999939
C    19.42000008   9.53999996  58.08000183
C    18.11000061   9.22000027  57.78999710
C    17.70000076   8.80999947  56.47999573
C    18.71000099   8.60000038  55.56000137
C    20.05000114   8.98999977  55.77999878
C    21.12999916   8.93000031  54.86000061
C    22.46000099   9.18000031  55.13000107
C    22.72999954   9.72000027  56.40999603
C    21.77000046   9.85000038  57.37999725
C    20.43000031   9.44999981  57.09000015
C    16.25000000   8.80999947  56.36000061
C    15.59999943   9.19999981  57.56000137
C    14.21000004   9.27999973  57.67000198
C    24.04000092  10.40999985  56.70999908
H    24.61828232   9.76746273  57.37395477
H    19.67000008   9.71000004  59.12000275
H    18.45999908   8.19999981  54.58000183
H    20.93000031   8.64000034  53.82999802
H    23.22999954   9.26000023  54.36999893
H    21.93000031  10.32999992  58.34000015
H    13.73000050   9.44000053  58.62999725
H    24.64999962  10.52000046  55.79999924
H    23.94000053  11.39999962  57.15999985
S    12.94000053   7.90999985  54.13000107
C    10.29999924   7.90999985  54.75000000
C    11.56000042   8.25000000  55.19000244
C    11.98999977   8.73999977  56.45999908
C    10.95000076   8.80000019  57.37999725
C     9.61999989   8.51000023  57.01000214
C     8.56000042   8.56999969  57.95000076
C     7.26000023   8.21000004  57.67000198
C     6.91999960   7.67000008  56.39999771
C     7.96000004   7.42000008  55.54000092
C     9.26999950   7.95000029  55.72999954
C    13.43000031   8.90999985  56.56999969
C    14.06000042   8.50000000  55.37000275
C    15.44000053   8.55000019  55.24000168
C     5.51000023   7.23999977  56.05999756
H     4.95590925   7.96458006  55.46328354
H    10.15999985   7.44999981  53.76999664
H    11.16000080   8.94999981  58.43000031
H     8.78000069   8.80000019  58.99000168
H     6.48000002   8.39999962  58.39000320
H     7.73000002   6.91999960  54.59999847
H    15.93000031   8.28999996  54.31000137
H     5.03999996   6.96000004  57.01000214
H     5.50000000   6.30999994  55.47000122
S    13.25000000   6.03999996  51.33999634
C    10.69000053   5.47999954  51.93999863
C    11.98999977   5.32999992  52.36999893
C    12.48000050   4.61999989  53.50999832
C    11.51999950   3.98999977  54.27000046
C    10.14999962   4.07999992  53.92000198
C     9.11000061   3.40999985  54.62999725
C     7.77999973   3.63999987  54.36999893
C     7.42999983   4.56999969  53.36000061
C     8.36999989   5.15999985  52.54000092
C     9.73999977   4.84000015  52.77000046
C    13.94000053   4.61999989  53.48999786
C    14.47999954   5.47999954  52.50000000
C    15.80000019   5.91000032  52.43000031
C     5.98999977   5.00000000  53.15000153
H     5.47726679   4.55847979  52.29544449
H    10.39000034   6.00000000  51.04000092
H    11.87000084   3.33999991  55.06999969
H     9.30999947   2.80999994  55.51000214
H     7.11000013   3.10999990  55.05000305
H     8.09000015   5.79999971  51.70999908
H    16.17000008   6.48000002  51.59000015
H     5.50000000   4.63000011  54.06000137
H     5.88999987   6.09000015  53.22000122
S    17.38000107   3.98000002  55.56000137
C    19.98999977   4.82999992  54.86999893
C    18.63000107   4.90000010  54.71000290
C    18.06999969   5.64000034  53.61999893
C    18.94000053   6.17999983  52.68000031
C    20.32999992   6.26999950  52.88000107
C    21.24000168   6.80999994  51.91999817
C    22.57999802   6.53999996  52.04999924
C    23.11000061   5.78999996  53.13999939
C    22.26000023   5.26999998  54.09000015
C    20.86999893   5.51000023  53.97999573
C    16.62999916   5.47999954  53.47000122
C    16.14999962   4.51000023  54.38999939
C    14.82999992   4.09000015  54.43000031
C    24.57999992   5.51000023  53.29999924
H    24.90080833   5.55277443  54.34084320
H    20.39999962   4.02999973  55.47000122
H    18.55999947   6.57999992  51.75000000
H    20.82999992   7.17999983  50.97999954
H    23.18000031   7.04999971  51.30000305
H    22.73999977   4.79999971  54.94999695
H    14.57999992   3.42000008  55.24000168
H    25.12000084   6.28000021  52.72999573
H    24.79000092   4.48000002  52.97999954
