96

S    17.57999992   9.13000011  58.87000275
C    20.23999977   9.51000023  57.98999786
C    18.96000099   9.04999924  57.76000214
C    18.63000107   8.51000023  56.47999573
C    19.64999962   8.23999977  55.59000015
C    21.01000023   8.52999973  55.87999725
C    22.07999992   8.36999989  54.95999908
C    23.36000061   8.73999977  55.28999710
C    23.68999863   9.30999947  56.53999710
C    22.65000153   9.59999943  57.41000366
C    21.31999969   9.21000004  57.11000061
C    17.18000031   8.32999992  56.37000275
C    16.47999954   8.73999977  57.52999878
C    15.11999989   9.02000046  57.55000305
C    25.15000153   9.59000015  56.81000137
H    25.54242516   9.07627869  57.68760681
H    20.40999985  10.00000000  58.94000244
H    19.40000153   7.90000010  54.59000015
H    21.83000183   7.99000025  53.96999741
H    24.25000000   8.63000011  54.68000031
H    22.89999962  10.07999992  58.34999847
H    14.57999992   9.35999966  58.43000031
H    25.82999992   9.43000031  55.96000290
H    25.27000046  10.67000008  56.97000122
S    13.90999985   7.68000031  54.02000046
C    11.18000031   7.95000029  54.65000153
C    12.48999977   8.23999977  54.93999863
C    12.94999981   8.90999985  56.11999893
C    11.98999977   9.39000034  56.98999786
C    10.60999966   9.19000053  56.73999786
C     9.56999969   9.40999985  57.67000198
C     8.23999977   9.04999924  57.60000229
C     7.88000011   8.30000019  56.45000076
C     8.85999966   8.01999950  55.52000046
C    10.21999931   8.43000031  55.58000183
C    14.37000084   8.76000023  56.39999771
C    15.03999901   8.11999989  55.31999969
C    16.42000008   7.95000029  55.27000046
C     6.46000004   7.78999996  56.27999878
H     5.96493149   8.34164715  55.48081589
H    10.86999989   7.30000019  53.82999802
H    12.25999928   9.98000050  57.85999680
H     9.92000008   9.75000000  58.63999939
H     7.75000000   9.13999939  58.55999756
H     8.57999992   7.36000013  54.71000290
H    16.87000084   7.69999981  54.31000137
H     5.84000015   7.77999973  57.18000031
H     6.65000010   6.75000000  56.00000000
S    17.40999985   9.77999973  52.56999969
C    20.12000084   9.53999996  51.84999847
C    18.78999901   9.38000011  51.52999878
C    18.38000107   9.02000046  50.20000076
C    19.29999924   8.69000053  49.22999954
C    20.66999817   8.85000038  49.54000092
C    21.61999893   8.80999947  48.47999954
C    22.95000076   9.07999992  48.70999908
C    23.38999939   9.30999947  50.04000092
C    22.49000168   9.40999985  51.06999969
C    21.09000015   9.26999950  50.84999847
C    16.93000031   9.11000061  50.06999969
C    16.25000000   9.43000031  51.26999664
C    14.86999989   9.35000038  51.39999771
C    24.82999992   9.68000031  50.31999969
H    25.26515961   8.85961342  50.89070129
H    20.34000015   9.94999981  52.83000183
H    18.92000008   8.38999939  48.25000000
H    21.40999985   8.60999966  47.43000031
H    23.72999954   9.06000042  47.95000076
H    22.70000076   9.78999996  52.06999969
H    14.32000065   9.63999939  52.29000092
H    25.29000092   9.96000004  49.36999893
H    24.82999992  10.55999947  50.97999954
S    13.67000008   8.31999969  47.77999878
C    11.00000000   8.34999943  48.54000092
C    12.31999969   8.52999973  48.90999603
C    12.65999985   9.01000023  50.20999908
C    11.68000031   9.26000023  51.16000366
C    10.32999992   8.98999977  50.84000015
C     9.25000000   9.13000011  51.76000214
C     7.94000053   9.01000023  51.36000061
C     7.63999987   8.67999935  50.01999664
C     8.64999962   8.52000046  49.09000015
C    10.00000000   8.71999931  49.47000122
C    14.11000061   9.04999924  50.26000214
C    14.81999969   8.67000008  49.09000015
C    16.20000076   8.67000008  48.95999908
C     6.25000000   8.13000011  49.75000000
H     5.84462166   8.55671406  48.83256531
H    10.80999947   8.01999950  47.51999664
H    12.02000046   9.64999962  52.11999893
H     9.57999992   9.25000000  52.78999710
H     7.13999987   9.01000023  52.09999847
H     8.46000004   7.99000025  48.16999817
H    16.60000038   8.17000008  48.09000015
H     5.68000031   8.39999962  50.63999939
H     6.23000050   7.03999996  49.64000320
