96

S    17.22999954   9.02000046  58.75999832
C    19.93999863   9.02999973  58.09000015
C    18.63999939   8.78999996  57.70999908
C    18.27000046   8.46000004  56.36000061
C    19.27000046   8.36999989  55.41999817
C    20.62000084   8.67000008  55.75000000
C    21.67000008   8.73999977  54.79999924
C    22.95000076   9.02000046  55.20000076
C    23.23999786   9.56999969  56.47999573
C    22.26000023   9.52000046  57.43999863
C    20.95999908   9.04999924  57.09999847
C    16.81999969   8.45000076  56.19999695
C    16.14999962   8.88000011  57.36999893
C    14.75999928   8.93000031  57.43999863
C    24.65999985  10.06000042  56.70999908
H    25.19471169   9.47538090  57.45859909
H    20.20999908   9.43000031  59.06000137
H    19.06999969   8.32999992  54.34999847
H    21.47000122   8.45000076  53.76999664
H    23.71999931   8.98999977  54.43000031
H    22.46999931   9.92000008  58.41999817
H    14.18000031   9.26999950  58.29999924
H    25.20000076  10.03000069  55.76000214
H    24.64999962  11.11999989  56.98999786
S    13.50999928   7.95000029  53.79000092
C    10.80999947   8.03999996  54.54999924
C    12.13000107   8.27999973  54.86000061
C    12.53000069   8.67000008  56.18000031
C    11.54999924   8.69000053  57.15999985
C    10.19999981   8.34999943  56.88999939
C     9.18000031   8.38999939  57.88000107
C     7.83999968   8.19999981  57.61000061
C     7.53000021   7.73999977  56.30000305
C     8.43999958   7.75000000  55.27000046
C     9.80000019   8.10000038  55.52999878
C    13.97999954   8.73000050  56.30000305
C    14.63999939   8.31999969  55.11000061
C    16.02000046   8.17000008  55.08999634
C     6.11000013   7.36000013  55.97000122
H     5.77381849   8.09673786  55.24041367
H    10.59999943   7.86999989  53.48999786
H    11.82000065   8.85999966  58.20000076
H     9.43000031   8.75000000  58.88000107
H     7.14999962   8.27999973  58.43999863
H     8.03999996   7.40999985  54.31999969
H    16.46000099   7.88000011  54.13999939
H     5.51999998   7.46999979  56.90000153
H     6.00000000   6.30000019  55.72999954
S    17.18000031   9.92000008  52.38999939
C    19.92000008   9.84000015  51.66999817
C    18.60000038   9.57999992  51.38000107
C    18.26000023   9.23999977  50.02999878
C    19.25000000   9.10000038  49.08000183
C    20.61000061   9.32999992  49.38999939
C    21.60000038   9.35000038  48.36000061
C    22.86999893   9.76000023  48.68000031
C    23.16999817  10.39000034  49.91000366
C    22.25000000  10.34000015  50.93999863
C    20.96999931   9.76000023  50.72000122
C    16.81999969   9.06999969  49.91000366
C    16.09000015   9.48000050  51.05999756
C    14.73000050   9.75000000  51.00999832
C    24.54999924  10.93999958  50.17000198
H    25.12562180  10.12986469  50.61770630
H    20.13999939  10.44999981  52.54000092
H    18.98999977   8.65999985  48.11999893
H    21.22999954   9.30000019  47.34000397
H    23.72999954   9.52999973  48.04999924
H    22.46999931  10.73999977  51.91999817
H    14.27000046   9.89000034  51.97999954
H    25.03999901  11.30000019  49.25000000
H    24.50000000  11.73999977  50.93000031
S    13.64999962   8.52999973  47.38999939
C    11.00000000   8.15999985  48.23999786
C    12.25000000   8.67000008  48.47999954
C    12.61999989   9.25000000  49.73999786
C    11.72000027   9.13000011  50.77999878
C    10.36999893   8.80999947  50.54000092
C     9.38000011   8.97000027  51.55000305
C     8.05999947   9.07999992  51.16000366
C     7.68000031   8.47999954  49.93999863
C     8.61999989   8.07999992  49.02000046
C     9.98999977   8.43000031  49.20000076
C    14.06000042   9.43000031  49.81999969
C    14.78000069   9.06000042  48.64999771
C    16.13999939   8.76999950  48.73000336
C     6.21000004   8.17000008  49.75000000
H     5.86982965   8.69442940  48.85705185
H    10.64000034   7.76000023  47.29999924
H    12.01000023   9.38000011  51.79999924
H     9.77000046   9.35999966  52.49000168
H     7.39000034   9.52999973  51.88999939
H     8.47000027   7.44000006  48.15000153
H    16.65999985   8.51000023  47.81000137
H     5.55999994   8.57999992  50.52999878
H     6.14000034   7.09000015  49.59999847
