96

S    16.95000076   9.92000008  58.44999695
C    19.71999931   9.77000046  57.77000046
C    18.40999985   9.39999962  57.57999802
C    17.97999954   8.73999977  56.38000107
C    18.95000076   8.39999962  55.45999908
C    20.31999969   8.71000004  55.63999939
C    21.28000069   8.64000034  54.59000015
C    22.56999969   9.07999992  54.79000092
C    23.02000046   9.59000015  56.04000092
C    22.06000137   9.86999989  56.97999954
C    20.72000122   9.42000008  56.83000183
C    16.54999924   8.46000004  56.27999878
C    15.85000038   9.04999924  57.36000061
C    14.47000027   9.22000027  57.32999802
C    24.43000031  10.05000019  56.29000092
H    24.90800476   9.49351692  57.09618759
H    20.00999832  10.42000008  58.59000397
H    18.71999931   8.02999973  54.47000122
H    20.95999908   8.34999943  53.59000397
H    23.23999786   9.23999977  53.95000076
H    22.34999847  10.44000053  57.85999680
H    13.90999985   9.59000015  58.18000031
H    24.93999863   9.98999977  55.31999969
H    24.34000015  11.11999989  56.55000305
S    13.43000031   7.72000027  53.80000305
C    10.70000076   7.78999996  54.27999878
C    11.96000004   8.22000027  54.65000153
C    12.30000019   8.78999996  55.91999817
C    11.26000023   8.93000031  56.81999969
C     9.92000008   8.67000008  56.45000076
C     8.82000065   8.73000050  57.36000061
C     7.57000017   8.26000023  57.02999878
C     7.28999996   7.73000002  55.73999786
C     8.30999947   7.69999981  54.81999969
C     9.63000011   8.10000038  55.15999603
C    13.73000050   8.85000038  56.19999695
C    14.46000004   8.22000027  55.15999603
C    15.84000015   8.09000015  55.13000107
C     5.98999977   7.05999947  55.35999680
H     5.35594702   7.68692875  54.73307037
H    10.65999985   7.27999973  53.31999969
H    11.36999989   9.07999992  57.88999939
H     9.06000042   9.13999939  58.33000183
H     6.75000000   8.19999981  57.74000168
H     8.13000011   7.25000000  53.85000229
H    16.28999901   7.71000004  54.20999908
H     5.46000004   6.67000008  56.24000168
H     6.26999950   6.09000015  54.92000198
S    13.67000008   5.78999996  50.91999817
C    11.06999969   4.98000002  51.56000137
C    12.41000080   5.03000021  51.90000153
C    12.94999981   4.30000019  53.01000214
C    12.05000019   3.72000003  53.88000107
C    10.67000008   4.01999998  53.75000000
C     9.81999969   3.51999998  54.78000259
C     8.47999954   3.44000006  54.52999878
C     7.96999979   3.88000011  53.27999878
C     8.71999931   4.51999998  52.31999969
C    10.13000011   4.51000023  52.50999832
C    14.39000034   4.46000004  53.09000015
C    14.93000031   5.28999996  52.06999969
C    16.22999954   5.77000046  52.06999969
C     6.60000038   3.33999991  52.91999817
H     6.09389067   3.90313578  52.13588715
H    10.59999943   5.36999989  50.66999817
H    12.39999962   3.09999990  54.69999695
H    10.26999950   3.02999997  55.63999939
H     7.86999989   2.73999977  55.08999634
H     8.34999943   4.81999969  51.33999634
H    16.54999924   6.34000015  51.19999695
H     6.84000015   2.32999992  52.58999634
H     5.92000008   3.25000000  53.77999878
S    17.67000008   4.15999985  55.40999985
C    20.34000015   4.79999971  54.59999847
C    18.97999954   4.78999996  54.40000153
C    18.51000023   5.40999985  53.18999863
C    19.31999969   6.07999992  52.29000092
C    20.72000122   6.07999992  52.50000000
C    21.63000107   6.58999968  51.53999710
C    22.95999908   6.58999968  51.88000107
C    23.50000000   6.01000023  53.06999969
C    22.62000084   5.42000008  53.94000244
C    21.21999931   5.42999983  53.68999863
C    17.06999969   5.31000042  53.09999847
C    16.52000046   4.46000004  54.09000015
C    15.18000031   4.09999990  54.19000244
C    24.93000031   6.25999975  53.48999786
H    25.33497238   5.63477945  54.28573608
H    20.75000000   4.21999979  55.43000031
H    18.88000107   6.60000038  51.44000244
H    21.17000198   7.07000017  50.66999817
H    23.67000198   7.05999947  51.20999908
H    23.01000214   4.92999983  54.84000397
H    14.61999989   3.68000007  55.01999664
H    24.86999893   7.30999994  53.81000137
H    25.59000015   6.25000000  52.62000275
