96

S    16.87000084   9.44000053  58.94000244
C    19.62000084   9.42000008  58.36000061
C    18.32999992   9.17000008  57.95999908
C    17.95999908   8.73000050  56.65000153
C    18.94000053   8.59000015  55.68000031
C    20.27000046   8.93000031  56.04000092
C    21.35000038   8.86999989  55.11000061
C    22.57999802   9.39999962  55.40999985
C    22.88999939   9.96999931  56.68000031
C    21.91999817   9.89000034  57.64999771
C    20.62999916   9.34000015  57.36999893
C    16.53000069   8.59000015  56.42000198
C    15.81999969   9.02000046  57.56999969
C    14.42999935   9.06999969  57.57999802
C    24.30999947  10.38000011  57.00000000
H    24.73621368   9.73357487  57.76718521
H    19.84000015   9.78999996  59.36000061
H    18.59000015   8.65999985  54.65000153
H    21.14999962   8.36000061  54.16999817
H    23.38999939   9.06000042  54.77000427
H    22.04000092  10.32999992  58.62999725
H    13.96999931   9.44000053  58.48999786
H    24.77000046  10.40999985  56.00999832
H    24.18000031  11.40999985  57.37999725
S    13.47000027   7.92999983  53.86000061
C    10.77999973   7.77999973  54.62999725
C    12.05000019   8.23999977  54.87999725
C    12.28999996   8.71999931  56.19999695
C    11.28000069   8.76000023  57.15000153
C     9.98000050   8.25000000  56.86999893
C     8.92000008   8.21000004  57.81999969
C     7.69999981   7.67000008  57.50000000
C     7.40999985   7.26000023  56.18000031
C     8.38000011   7.32999992  55.20999908
C     9.68999958   7.77999973  55.54000092
C    13.73000050   8.82000065  56.38999939
C    14.46000004   8.50000000  55.21999741
C    15.84000015   8.36000061  55.21999741
C     5.98999977   6.98000002  55.76000214
H     5.51906967   7.73634243  55.13209152
H    10.65999985   7.44999981  53.60000229
H    11.39999962   8.96000004  58.20999908
H     9.11999989   8.63000011  58.80000305
H     6.86999989   7.71000004  58.20000076
H     8.23999977   7.13999987  54.13999939
H    16.36000061   7.95000029  54.36000061
H     5.33999968   6.75000000  56.62000275
H     5.92000008   6.11000013  55.10000229
S    17.23999977  10.06000042  52.75000000
C    19.96999931  10.34999943  52.25000000
C    18.76000023   9.82999992  51.86999893
C    18.53000069   9.28999996  50.56000137
C    19.56999969   9.22999954  49.64000320
C    20.84000015   9.75000000  50.00000000
C    21.94999886   9.75000000  49.10999680
C    23.23999786  10.00000000  49.51000214
C    23.45999908  10.32999992  50.87999725
C    22.39999962  10.43000031  51.75000000
C    21.04999924  10.21000004  51.33999634
C    17.11000061   9.13999939  50.27000046
C    16.28000069   9.52000046  51.35000229
C    14.88999939   9.53999996  51.37000275
C    24.79000092  10.80999947  51.40999603
H    25.21675873   9.99915791  52.00034714
H    20.15999985  10.57999992  53.29999924
H    19.43000031   8.78000069  48.67000198
H    21.73999977   9.44999981  48.09000015
H    24.09000015  10.01000023  48.83999634
H    22.53999901  10.84000015  52.75000000
H    14.34000015   9.78999996  52.27000427
H    25.42000008  11.26999950  50.63999939
H    24.73999977  11.61000061  52.16999817
S    13.97999954   8.63000011  47.63999939
C    11.19999981   8.59000015  48.23999786
C    12.50000000   8.88000011  48.57999802
C    12.79999924   9.28999996  49.92000198
C    11.76000023   9.64999962  50.76000214
C    10.48999977   9.06999969  50.56000137
C     9.48999977   8.93999958  51.56999969
C     8.27000046   8.34000015  51.38000107
C     7.96000004   7.94000053  50.05000305
C     8.89000034   8.05999947  49.05000305
C    10.24000072   8.47000027  49.27999878
C    14.22999954   9.26000023  50.15999603
C    15.03000069   8.88000011  49.05000305
C    16.42000008   8.84000015  49.09999847
C     6.50000000   7.68000031  49.72000122
H     6.04517841   8.40487194  49.04487228
H    10.88000107   8.21000004  47.27000427
H    12.03999996  10.03999901  51.73999786
H     9.72000027   9.44000053  52.50000000
H     7.49000025   8.48999977  52.12999725
H     8.60999966   7.76999998  48.04000092
H    17.05999947   8.45000076  48.30999756
H     6.01000023   7.69999981  50.70000076
H     6.37000036   6.63000011  49.45000076
