96

S    16.70999908   9.44999981  58.37999725
C    19.34999847   9.48000050  57.70999908
C    18.11000061   8.97000027  57.38999939
C    17.78000069   8.36000061  56.13999939
C    18.79999924   8.02999973  55.27999878
C    20.10999870   8.47000027  55.56999969
C    21.22999954   8.45000076  54.68999863
C    22.43999863   9.02999973  54.99000168
C    22.70999908   9.61999989  56.25000000
C    21.63000107   9.81999969  57.09000015
C    20.36999893   9.23999977  56.76000214
C    16.32999992   8.18000031  56.10000229
C    15.60999966   8.82999992  57.12999725
C    14.22000027   8.90999985  57.12999725
C    24.06999969  10.19000053  56.58000183
H    24.53168297   9.58625984  57.36131287
H    19.57999992  10.05000019  58.60000229
H    18.55999947   7.44000006  54.38999939
H    21.04999924   8.21000004  53.63999939
H    23.25000000   9.11999989  54.27000046
H    21.73000145  10.43000031  57.97999954
H    13.76000023   9.35999966  58.01000214
H    24.70999908  10.31999969  55.70000076
H    23.98999977  11.23000050  56.93999863
S    13.19000053   7.04999971  53.77999878
C    10.42000008   7.28999996  54.33000183
C    11.72999954   7.53999996  54.66999817
C    12.09000015   8.10999966  55.93000031
C    11.10000038   8.51000023  56.81000137
C     9.73999977   8.27000046  56.52999878
C     8.63000011   8.65999985  57.32999802
C     7.30999994   8.39999962  57.02999878
C     7.00999975   7.76000023  55.79999924
C     8.05000019   7.36999989  54.99000168
C     9.42000008   7.64999962  55.27000046
C    13.53000069   8.30000019  56.07999802
C    14.27000046   7.73000002  55.00999832
C    15.65999985   7.65999985  54.99000168
C     5.60999966   7.35000038  55.43000031
H     5.03453684   8.03913403  54.81190872
H    10.11000061   6.69000053  53.47999954
H    11.39000034   9.07999992  57.69000244
H     9.00000000   9.15999985  58.22000122
H     6.48999977   8.78999996  57.63999939
H     7.79999971   6.89000034  54.05000305
H    16.22999954   7.17000008  54.20000076
H     5.00000000   7.18999958  56.32999802
H     5.56999969   6.34000015  54.99000168
S    13.82999992   5.18000031  50.65000153
C    11.26000023   4.23999977  51.11000061
C    12.56999969   4.26999998  51.50000000
C    13.09000015   3.73000002  52.72999573
C    12.15000057   3.30999994  53.64999771
C    10.77999973   3.26999998  53.29000092
C     9.78999996   2.94000006  54.26000214
C     8.47000027   3.26999998  54.05000305
C     7.99000025   3.74000025  52.80000305
C     8.89999962   4.02999973  51.81000137
C    10.29000092   3.81000018  52.04999924
C    14.50000000   3.98999977  52.93000031
C    15.05000019   4.76000023  51.86999893
C    16.36999893   5.21000004  51.88000107
C     6.57999992   4.26999998  52.69000244
H     6.11807156   4.15629482  51.70929337
H    10.95000076   4.72000027  50.19000244
H    12.55000019   3.03999996  54.62999725
H    10.07999992   2.66999984  55.27000046
H     7.77999973   3.25999999  54.87999725
H     8.65999985   4.67000008  50.97000122
H    16.79000092   5.71000004  51.02000427
H     6.02999973   3.70000005  53.43999863
H     6.57000017   5.32999992  52.97999954
S    17.68000031   3.93000007  55.43000031
C    20.31999969   4.74000025  54.87999725
C    19.01000023   4.61999989  54.47999954
C    18.56999969   4.96000004  53.15999985
C    19.52000046   5.51000023  52.31999969
C    20.88000107   5.52999973  52.70000076
C    21.90000153   5.93999958  51.79999924
C    23.25000000   5.88000011  52.06999969
C    23.69999886   5.50000000  53.36000061
C    22.75000000   5.22000027  54.31000137
C    21.37000084   5.07999992  53.97999573
C    17.14999962   4.74000025  52.95000076
C    16.55999947   4.09999990  54.06000137
C    15.21999931   3.72000003  54.10999680
C    25.19000053   5.49000025  53.61000061
H    25.47474861   5.65373087  54.64933395
H    20.61000061   4.44999981  55.89000320
H    19.29000092   5.92000008  51.33999634
H    21.54999924   6.26999950  50.81999969
H    23.92000008   6.14000034  51.25000000
H    23.05000114   4.94999981  55.31999969
H    14.75000000   3.12999988  54.87999725
H    25.69999886   6.17999983  52.93000031
H    25.61000061   4.53000021  53.29999924
