96

S    16.95000076   9.89999962  58.43999863
C    19.62000084   9.94999981  57.76000214
C    18.32999992   9.68999958  57.35000229
C    18.02999878   9.15000057  56.05999756
C    19.06999969   8.85999966  55.19000244
C    20.38999939   9.26000023  55.48999786
C    21.47999954   9.26999950  54.58000183
C    22.75000000   9.70000076  54.88999939
C    22.98000145  10.26000023  56.18000031
C    21.94999886  10.31000042  57.09999847
C    20.65000153   9.82999992  56.79000092
C    16.59000015   9.06999969  55.90999985
C    15.88999939   9.48999977  57.06999969
C    14.51000023   9.68999958  57.11000061
C    24.38999939  10.67000008  56.52999878
H    24.78987694   9.86310387  57.14409637
H    19.79999924  10.57000065  58.62999725
H    18.94000053   8.64999962  54.13999939
H    21.31999969   8.89999962  53.56999969
H    23.55999947   9.61000061  54.18000031
H    22.17000008  10.60999966  58.11999893
H    14.00000000  10.11999989  57.95999908
H    25.06999969  10.60999966  55.66999817
H    24.44999886  11.67000008  56.97000122
S    13.28999996   8.26000023  53.64999771
C    10.59000015   8.27999973  54.27999878
C    11.87000084   8.57999992  54.66999817
C    12.28999996   9.06999969  55.94999695
C    11.26000023   9.21000004  56.86999893
C     9.92999935   8.80000019  56.63999939
C     8.89999962   8.96000004  57.60000229
C     7.57000017   8.73000050  57.29999924
C     7.25000000   8.27999973  55.98999786
C     8.23000050   8.11999989  55.04000092
C     9.59999943   8.36999989  55.30000305
C    13.73000050   9.17000008  56.05999756
C    14.42999935   8.64999962  54.94999695
C    15.81999969   8.65999985  54.81999969
C     5.79999971   8.02999973  55.63999939
H     5.54476452   8.46957302  54.67577362
H    10.29000092   7.82000017  53.34999847
H    11.46000004   9.39000034  57.93000031
H     9.15999985   9.50000000  58.50000000
H     6.85999966   8.98999977  58.08000183
H     7.96000004   8.00000000  53.99000168
H    16.21999931   8.42000008  53.83999634
H     5.22000027   8.48999977  56.45000076
H     5.58000040   6.96000004  55.63000107
S    17.64999962  10.46000004  52.45999908
C    20.27000046  10.77999973  51.65000153
C    19.04000092  10.19999981  51.39999771
C    18.68000031   9.61000061  50.14999771
C    19.67000008   9.48000050  49.19000244
C    20.97999954   9.96999931  49.40000153
C    22.04999924   9.81999969  48.47000122
C    23.28000069  10.38000011  48.74000168
C    23.55999947  11.00000000  49.98000336
C    22.55000114  11.18000031  50.89000320
C    21.25999832  10.62000084  50.65999985
C    17.22999954   9.50000000  50.07999802
C    16.50000000   9.96999931  51.19999695
C    15.11999989  10.11000061  51.20999908
C    24.99000168  11.38000011  50.31999969
H    25.42430496  10.58970451  50.93230057
H    20.52000046  11.32999992  52.56000137
H    19.52000046   8.88000011  48.29999924
H    21.94999886   9.11999989  47.64999771
H    24.07999992  10.11000061  48.06000137
H    22.77000046  11.59999943  51.86999893
H    14.60999966  10.43000031  52.11000061
H    25.46999931  11.38000011  49.33000183
H    24.96000099  12.35999966  50.79999924
S    14.04000092   8.59000015  47.72999573
C    11.32999992   8.45000076  48.37999725
C    12.61000061   8.82999992  48.74000168
C    12.97999954   9.47000027  49.97000122
C    11.92999935   9.85999966  50.77999878
C    10.59000015   9.48999977  50.51000214
C     9.53999996   9.68000031  51.45999908
C     8.28999996   9.19000053  51.16000366
C     7.97999954   8.43999958  49.99000168
C     8.96000004   8.36999989  49.02999878
C    10.29999924   8.73999977  49.31000137
C    14.42000008   9.65999985  50.07999802
C    15.15999985   9.11000061  49.00000000
C    16.54000092   8.97999954  48.97999573
C     6.61000013   7.85000038  49.75999832
H     6.19006729   8.30552006  48.86319351
H    11.11999989   8.02999973  47.41000366
H    12.17000008  10.32999992  51.72000122
H     9.77999973  10.14000034  52.41000366
H     7.42000008   9.28999996  51.81000137
H     8.73000050   8.01000023  48.02999878
H    17.13000107   8.45000076  48.22999954
H     6.01999998   7.96999979  50.68000031
H     6.67999983   6.76000023  49.68000031
