96

S    17.04000092   9.36999989  58.68999863
C    19.76000023   9.35000038  58.01000214
C    18.45999908   9.06999969  57.65999603
C    18.09999847   8.59000015  56.36000061
C    19.04999924   8.36000061  55.38999939
C    20.40999985   8.59000015  55.72999954
C    21.44000053   8.52000046  54.75999832
C    22.67999840   9.10000038  54.95999908
C    23.05000114   9.52999973  56.25999832
C    22.11000061   9.46000004  57.25999832
C    20.75000000   9.10000038  57.04000092
C    16.64999962   8.47000027  56.24000168
C    15.93999958   9.00000000  57.35000229
C    14.55000019   9.06000042  57.39999771
C    24.38999939  10.15999985  56.55000305
H    24.80821609   9.55039787  57.35099030
H    19.88999939   9.76000023  59.01000214
H    18.71000099   7.96000004  54.43999863
H    21.14000130   8.39999962  53.72000122
H    23.28000069   9.22000027  54.06000137
H    22.25000000   9.96000004  58.22000122
H    14.09999943   9.57999992  58.23999786
H    25.00999832  10.11999989  55.63999939
H    24.13000107  11.14999962  56.95000076
S    13.45999908   7.64999962  53.82999802
C    10.75000000   7.73000002  54.54999924
C    12.05000019   8.13000011  54.79000092
C    12.36999989   8.69000053  56.06999969
C    11.36000061   8.80999947  57.01000214
C    10.01000023   8.43000031  56.83000183
C     8.93999958   8.60000038  57.75000000
C     7.64999962   8.25000000  57.43999863
C     7.40000010   7.83999968  56.11000061
C     8.38999939   7.63999987  55.17000198
C     9.73999977   7.88000011  55.52999878
C    13.81000042   8.64999962  56.27999878
C    14.51000023   8.07999992  55.19000244
C    15.90000057   8.05999947  55.13000107
C     5.97000027   7.51999950  55.72000122
H     5.68405342   7.98466253  54.77637863
H    10.40999985   7.35000038  53.59000397
H    11.57999992   9.23999977  57.98999786
H     9.13999939   9.01000023  58.74000168
H     6.85999966   8.52000046  58.13000107
H     8.09000015   7.32999992  54.16999817
H    16.40999985   7.73999977  54.22999954
H     5.33999968   7.86999989  56.55000305
H     5.92000008   6.43000031  55.65999985
S    13.40999985   5.72000027  50.93000031
C    10.78999996   5.13999987  51.66999817
C    12.13999939   4.90000010  51.84000015
C    12.61999989   4.13999987  52.95999908
C    11.72000027   3.61999989  53.87000275
C    10.32999992   3.73000002  53.63999939
C     9.36999989   3.16000009  54.52000046
C     8.01999950   3.30999994  54.33000183
C     7.57000017   4.07000017  53.22000122
C     8.45000076   4.57999992  52.29999924
C     9.85000038   4.50000000  52.51999664
C    14.06999969   4.26999998  53.11999893
C    14.59000015   5.09999990  52.09999847
C    15.90000057   5.55999994  52.19999695
C     6.06999969   4.15000010  53.02000046
H     5.79966736   3.89389539  51.99558258
H    10.40999985   5.96000004  51.05999756
H    12.10999966   3.12999988  54.75999832
H     9.78999996   2.54999995  55.31999969
H     7.34000015   2.84000015  55.04000092
H     8.14000034   5.28999996  51.53999710
H    16.44000053   6.05000019  51.38999939
H     5.52999973   3.50000000  53.72000122
H     5.65999985   5.12000036  53.31999969
S    17.38000107   4.00999975  55.56000137
C    19.96999931   4.79999971  55.00000000
C    18.64999962   4.80999994  54.61999893
C    18.17000008   5.42999983  53.41999817
C    19.05999947   6.06999969  52.56999969
C    20.43999863   5.88999987  52.81999969
C    21.38000107   6.37000036  51.86000061
C    22.72999954   6.43000031  52.12999725
C    23.19999886   5.78000021  53.30999756
C    22.30999947   5.21000004  54.18000031
C    20.88999939   5.26999998  54.03999710
C    16.73999977   5.25000000  53.27000046
C    16.18999863   4.46999979  54.31999969
C    14.92000008   3.94000006  54.18000031
C    24.69000053   5.55999994  53.43000031
H    25.08185577   5.98035383  54.35620499
H    20.38000107   4.18000031  55.79999924
H    18.60999870   6.56000042  51.70000076
H    21.04999924   6.80000019  50.91999817
H    23.48999977   6.69000053  51.39999771
H    22.72999954   4.63999987  55.00000000
H    14.50000000   3.51000023  55.08999634
H    25.15000153   5.72000027  52.43999863
H    24.80999947   4.46999979  53.47999954
