96

S    17.67000008   9.68000031  58.70999908
C    20.36999893   9.61000061  57.95000076
C    19.04999924   9.36999989  57.63999939
C    18.71000099   8.82999992  56.35000229
C    19.64999962   8.67000008  55.34999847
C    21.02000046   8.78999996  55.68000031
C    22.10000038   8.38000011  54.85000229
C    23.42000008   8.59000015  55.18000031
C    23.75999832   9.15000057  56.43000031
C    22.73999977   9.44999981  57.29999924
C    21.35999870   9.30000019  56.97999954
C    17.28000069   8.52999973  56.35000229
C    16.57999992   9.02000046  57.48000336
C    15.19000053   8.97999954  57.57999802
C    25.13999939   9.61000061  56.84999847
H    25.48066139   9.11320400  57.75842667
H    20.71000099  10.05000019  58.88000107
H    19.40999985   8.48999977  54.29999924
H    21.94999886   7.94000053  53.86000061
H    24.21999931   8.34999943  54.48999786
H    22.95000076   9.80000019  58.30999756
H    14.77000046   9.50000000  58.43000031
H    25.79000092   9.23999977  56.04999924
H    25.06000137  10.70000076  56.90000153
S    13.97999954   7.68000031  54.13999939
C    11.26999950   7.88000011  54.77000427
C    12.56999969   8.22000027  55.06999969
C    12.98999977   8.89999962  56.25999832
C    11.96000004   9.27999973  57.09999847
C    10.59999943   9.06000042  56.77999878
C     9.57999992   9.32999992  57.74000168
C     8.27000046   8.97000027  57.56000137
C     7.85000038   8.34000015  56.35000229
C     8.84000015   8.00000000  55.45999908
C    10.21999931   8.34999943  55.59000015
C    14.42000008   8.71000004  56.44000244
C    15.15999985   8.14999962  55.37000275
C    16.54000092   8.01000023  55.27999878
C     6.42000008   7.90000010  56.12999725
H     5.88773870   8.45355129  55.35644913
H    11.05999947   7.26000023  53.90999603
H    12.28999996   9.56999969  58.09999847
H     9.94999981   9.72000027  58.68999863
H     7.53999996   9.01000023  58.36000061
H     8.60000038   7.35000038  54.62999725
H    17.04000092   7.73999977  54.34999847
H     5.86000013   7.96000004  57.05999756
H     6.25000000   6.85999966  55.81999969
S    17.46000099   9.85000038  52.70999908
C    20.23999977   9.71000004  52.15999985
C    18.93000031   9.55000019  51.76000214
C    18.60000038   9.13999939  50.43000031
C    19.62000084   8.69999981  49.59999847
C    20.95999908   9.00000000  49.89999771
C    22.09000015   8.82000065  49.05000305
C    23.38000107   9.15000057  49.40999985
C    23.61000061   9.75000000  50.68000031
C    22.57999802   9.94000053  51.58000183
C    21.27000046   9.53999996  51.19999695
C    17.18000031   9.00000000  50.19000244
C    16.44000053   9.31999969  51.36000061
C    15.06000042   9.25000000  51.47999573
C    25.02000046  10.17000008  51.00000000
H    25.64133072   9.39155006  51.44279099
H    20.48999977  10.08999920  53.15000153
H    19.44000053   8.31999969  48.59000397
H    21.97000122   8.40999985  48.04999924
H    24.14999962   8.93000031  48.68999863
H    22.73999977  10.36000061  52.56999969
H    14.50000000   9.48999977  52.37999725
H    25.52999878  10.39000034  50.05000305
H    24.99000168  11.10999966  51.58000183
S    13.97999954   8.15999985  47.77000046
C    11.26999950   8.17000008  48.53000259
C    12.58999920   8.38999939  48.85000229
C    12.92000008   8.73000050  50.20999908
C    11.90999985   8.94999981  51.11999893
C    10.53999996   8.71999931  50.81999969
C     9.52000046   8.85000038  51.79999924
C     8.21000004   8.69000053  51.38000107
C     7.88999987   8.01000023  50.18000031
C     8.89000034   7.86000013  49.25000000
C    10.22999954   8.28999996  49.47999954
C    14.37000084   8.82999992  50.34000015
C    15.05000019   8.52999973  49.13000107
C    16.44000053   8.56999969  49.08000183
C     6.43000031   7.72000027  49.91000366
H     6.09633827   8.30213356  49.05099869
H    11.03999996   7.53999996  47.67000198
H    12.13000107   9.17000008  52.15999985
H     9.72999954   9.15000057  52.81999969
H     7.37999964   8.97000027  52.02000046
H     8.76000023   7.42999983  48.26000214
H    16.98999977   8.21000004  48.20999908
H     5.82000017   7.94000053  50.79999924
H     6.44999981   6.63000011  49.79000092
