96

S    17.32999992   9.88000011  58.36999893
C    20.05000114   9.92000008  57.69000244
C    18.75000000   9.63999939  57.34000397
C    18.45000076   9.04999924  56.05999756
C    19.38999939   8.93000031  55.06000137
C    20.69000053   9.39000034  55.38999939
C    21.77999878   9.15000057  54.51000214
C    23.06999969   9.47000027  54.86999893
C    23.40999985  10.17000008  56.05999756
C    22.39000130  10.26000023  56.97999954
C    21.05999947   9.84000015  56.70999908
C    17.01000023   9.00000000  55.87999725
C    16.27000046   9.38000011  57.04000092
C    14.89999962   9.59999943  57.04000092
C    24.80999947  10.69000053  56.30000305
H    25.27445221  10.10407543  57.09314728
H    20.22999954  10.29999924  58.69999695
H    19.27999878   8.43000031  54.09999847
H    21.56999969   8.89000034  53.47000122
H    23.78000069   9.48999977  54.06000137
H    22.46999931  10.70000076  57.97000122
H    14.48999977  10.14999962  57.87000275
H    25.48000145  10.62999916  55.44000244
H    24.93000031  11.76000023  56.55000305
S    13.82999992   8.34999943  53.44999695
C    11.13000011   8.26000023  54.08000183
C    12.38000011   8.73000050  54.40999985
C    12.71000004   9.21000004  55.72000122
C    11.67000008   9.26000023  56.63000107
C    10.34000015   8.93000031  56.26999664
C     9.26999950   9.15999985  57.18000031
C     8.00000000   8.76999950  56.84000015
C     7.69000006   8.17000008  55.59000015
C     8.69999981   7.97999954  54.68000031
C    10.03000069   8.40999985  54.97000122
C    14.14999962   9.21000004  55.91999817
C    14.89999962   8.73999977  54.80999756
C    16.28000069   8.60000038  54.75000000
C     6.30000019   7.63000011  55.37000275
H     5.70422316   8.27542496  54.72457504
H    10.98999977   7.88000011  53.06999969
H    11.84000015   9.46000004  57.68000031
H     9.48999977   9.59000015  58.15999985
H     7.23000002   8.71999931  57.61000061
H     8.52000046   7.35000038  53.81000137
H    16.84000015   8.23999977  53.89999771
H     5.82000017   7.40000010  56.31999969
H     6.56000042   6.65000010  54.94999695
S    13.63999939   6.06999969  50.75000000
C    10.97000027   5.73999977  51.40999603
C    12.28000069   5.45000029  51.70999908
C    12.71000004   4.72000027  52.87000275
C    11.78999996   4.33999968  53.81999969
C    10.43000031   4.67000008  53.57999802
C     9.39000034   4.15999985  54.40000153
C     8.05999947   4.17000008  54.05000305
C     7.65999985   4.79999971  52.84000015
C     8.63000011   5.32000017  52.02999878
C    10.01000023   5.32000017  52.36999893
C    14.15999985   4.72000027  53.01000214
C    14.77000046   5.46999979  51.97000122
C    16.10000038   5.86999989  51.97999954
C     6.21999979   4.61999989  52.39999771
H     6.08490801   4.05830288  51.47568893
H    10.67999935   6.24000025  50.48999786
H    12.03999996   3.84999990  54.75999832
H     9.63999939   3.52999973  55.25000000
H     7.37999964   3.65999985  54.72999954
H     8.38000011   5.65999985  51.02000427
H    16.62999916   6.42000008  51.20999908
H     5.56999969   4.23999977  53.18999863
H     5.82999992   5.64000034  52.29000092
S    17.38000107   4.59000015  55.54999924
C    20.05000114   4.96000004  54.82999802
C    18.71999931   5.12000036  54.51000214
C    18.23999977   5.73999977  53.31999969
C    19.15999985   6.23000050  52.41000366
C    20.53999901   6.14000034  52.70000076
C    21.50000000   6.58999968  51.76000214
C    22.85000038   6.44000006  52.00000000
C    23.28000069   5.86999989  53.22999954
C    22.37999916   5.36999989  54.13999939
C    20.98999977   5.46999979  53.88999939
C    16.80999947   5.52999973  53.13999939
C    16.23999977   4.77999973  54.20000076
C    14.93000031   4.32000017  54.10999680
C    24.76000023   5.58000040  53.31999969
H    25.16555023   5.79344749  54.30897522
H    20.36000061   4.38000011  55.70000076
H    18.92000008   6.57999992  51.40999603
H    21.02000046   7.11000013  50.93000031
H    23.50000000   6.90000010  51.26999664
H    22.70999908   4.92000008  55.07999802
H    14.44000053   3.84000015  54.94999695
H    25.29000092   6.23000050  52.62000275
H    24.93999863   4.51000023  53.13999939
