96

S    16.65999985   9.51000023  58.62999725
C    19.40999985   9.46000004  57.95000076
C    18.09000015   9.22000027  57.63000107
C    17.76000023   8.67000008  56.35000229
C    18.77000046   8.38000011  55.44000244
C    20.13999939   8.52000046  55.76000214
C    21.19999886   8.28999996  54.84000397
C    22.49000168   8.63000011  55.15999603
C    22.79000092   9.25000000  56.39999771
C    21.78999901   9.43000031  57.32999802
C    20.43999863   9.10000038  57.04000092
C    16.32999992   8.42000008  56.24000168
C    15.59999943   8.96000004  57.31999969
C    14.21000004   9.01000023  57.25999832
C    24.18999863   9.77000046  56.60999680
H    24.69533157   9.29313850  57.44984436
H    19.68000031   9.86999989  58.92000198
H    18.50000000   7.92999983  54.48999786
H    20.92000008   7.99000025  53.82999802
H    23.36999893   8.50000000  54.54000092
H    22.09000015   9.85000038  58.29000092
H    13.61999989   9.63999939  57.93000031
H    24.70999908   9.61000061  55.66999817
H    24.15999985  10.85000038  56.83000183
S    13.17999935   7.32999992  53.77999878
C    10.43000031   7.62000036  54.38999939
C    11.75000000   7.88000011  54.68000031
C    12.07999992   8.56000042  55.89000320
C    11.07999992   8.93999958  56.76000214
C     9.71000004   8.67000008  56.49000168
C     8.69000053   8.76999950  57.47000122
C     7.40999985   8.32999992  57.23999786
C     7.04999971   7.75000000  55.98999786
C     8.05000019   7.51999950  55.07999802
C     9.38000011   7.97999954  55.27000046
C    13.50999928   8.55000019  56.13999939
C    14.22999954   8.00000000  55.04000092
C    15.59000015   7.82000017  55.20999908
C     5.65999985   7.16000032  55.91999817
H     5.16928959   7.66493416  55.08792496
H    10.19000053   7.03999996  53.50000000
H    11.42000008   9.23999977  57.75000000
H     9.02999973   9.00000000  58.47999954
H     6.67999983   8.36999989  58.04999924
H     7.86999989   6.93000031  54.19000244
H    16.18999863   7.42999983  54.38000107
H     5.22000027   7.23999977  56.91999817
H     5.72000027   6.09000015  55.68000031
S    13.32999992   5.44000053  51.09000397
C    10.71000004   4.80999994  51.84000015
C    12.05999947   4.69999981  52.08000183
C    12.56000042   4.19000006  53.33000183
C    11.64000034   3.75999975  54.26000214
C    10.25000000   3.75000000  53.99000168
C     9.31999969   3.35000014  55.00000000
C     7.96999979   3.35000014  54.75000000
C     7.46000004   3.71000004  53.47000122
C     8.34999943   4.23000002  52.56000137
C     9.76000023   4.28000021  52.76000214
C    14.01999950   4.26000023  53.39000320
C    14.55999947   4.92999983  52.25999832
C    15.90000057   5.27999973  52.21000290
C     5.98000002   3.63000011  53.16999817
H     5.70225143   3.97184467  52.17295456
H    10.31999969   5.19999981  50.90999985
H    11.94000053   3.38000011  55.22999573
H     9.67000008   3.19999981  56.02000427
H     7.26000023   3.05999994  55.52000046
H     7.90999985   4.65000010  51.65999985
H    16.36999893   5.93999958  51.49000168
H     5.73000002   2.57999992  53.34000015
H     5.46000004   4.30000019  53.86000061
S    17.35000038   3.76999998  55.68999863
C    19.95000076   4.53999996  55.00999832
C    18.60000038   4.55000019  54.69999695
C    18.09000015   5.10999966  53.48999786
C    18.95000076   5.77000046  52.63000107
C    20.35000038   5.72000027  52.85999680
C    21.27000046   6.17999983  51.86999893
C    22.60999870   6.14000034  52.16999817
C    23.12999916   5.50000000  53.33000183
C    22.22999954   5.03000021  54.26000214
C    20.82999992   5.18000031  54.09999847
C    16.67000008   4.88999987  53.30999756
C    16.15999985   4.19999981  54.43999863
C    14.82999992   3.79999995  54.43000031
C    24.57999992   5.12000036  53.48999786
H    24.98640823   5.54066753  54.40976334
H    20.36999893   4.00999975  55.86000061
H    18.54999924   6.24000025  51.72999954
H    20.82999992   6.44999981  50.90999985
H    23.31999969   6.38000011  51.38999939
H    22.63000107   4.46999979  55.11000061
H    14.37999916   3.28000021  55.27999878
H    25.28000069   5.38999987  52.69000244
H    24.60000038   4.01999998  53.56999969
