96

S    17.10000038   9.63999939  58.95999908
C    19.84000015   9.35000038  58.37999725
C    18.53000069   9.15000057  58.02999878
C    18.13999939   8.57999992  56.77000046
C    19.07999992   8.36000061  55.79000092
C    20.40999985   8.73999977  56.06999969
C    21.34000015   8.82000065  54.99000168
C    22.63999939   9.22000027  55.20000076
C    23.09000015   9.59999943  56.49000168
C    22.15999985   9.68999958  57.50000000
C    20.79999924   9.30999947  57.34000397
C    16.69000053   8.51000023  56.59000015
C    16.00000000   8.97000027  57.74000168
C    14.61999989   9.07999992  57.69000244
C    24.54999924   9.78999996  56.84999847
H    24.94152832   9.09236622  57.59034348
H    20.00999832   9.61999989  59.41999817
H    18.81000137   7.97999954  54.79999924
H    21.01000023   8.59000015  53.97999573
H    23.36000061   9.19999981  54.38999939
H    22.46999931  10.01000023  58.48999786
H    14.09000015   9.27999973  58.61999893
H    25.25000000   9.77000046  56.00999832
H    24.60000038  10.73999977  57.39999771
S    13.55000019   8.11999989  54.00000000
C    10.84000015   7.76999998  54.79000092
C    12.13999939   8.11999989  55.07999802
C    12.43999958   8.67999935  56.36000061
C    11.44999981   8.76999950  57.31999969
C    10.11000061   8.51000023  56.97000122
C     9.07999992   8.63000011  57.94000244
C     7.79999971   8.22000027  57.65999603
C     7.46999979   7.57999992  56.43000031
C     8.46000004   7.37999964  55.50000000
C     9.78999996   7.81000042  55.75000000
C    13.89000034   8.76999950  56.53999710
C    14.63000107   8.46000004  55.37000275
C    16.01000023   8.30000019  55.38000107
C     6.10000038   7.11000013  56.00000000
H     5.70256281   7.79132128  55.24770737
H    10.62000084   7.31999969  53.81999969
H    11.72000027   9.01000023  58.34000015
H     9.35000038   9.07999992  58.89999771
H     7.04999971   8.36999989  58.43000031
H     8.10000038   7.03000021  54.54000092
H    16.57999992   7.92000008  54.54000092
H     5.45000029   7.11999989  56.88000107
H     6.02999973   6.05999994  55.68999863
S    17.20999908  10.03000069  52.63999939
C    19.88999939  10.06999969  51.93999863
C    18.60000038   9.76000023  51.56999969
C    18.20999908   9.30000019  50.27999878
C    19.22000122   9.02000046  49.36999893
C    20.56999969   9.30999947  49.66999817
C    21.61999893   9.13999939  48.72000122
C    22.90999985   9.44000053  49.05000305
C    23.22999954   9.94999981  50.34000015
C    22.23999977  10.21000004  51.25000000
C    20.88000107   9.90999985  50.93999863
C    16.77000046   9.21000004  50.12000275
C    16.10999870   9.65999985  51.29000092
C    14.75000000   9.92000008  51.25000000
C    24.67000008  10.29999924  50.65999985
H    25.12514114   9.73107243  51.47072220
H    20.15999985  10.67999935  52.80000305
H    19.11000061   8.71000004  48.34000015
H    21.21999931   8.82999992  47.75000000
H    23.71000099   9.11999989  48.39000320
H    22.52000046  10.60999966  52.22000122
H    14.27000046  10.01000023  52.22000122
H    25.20999908  10.06999969  49.73999786
H    24.65999985  11.36000061  50.94999695
S    13.48999977   8.40999985  47.88999939
C    10.80000019   8.52000046  48.66000366
C    12.10999966   8.85000038  48.92000198
C    12.48000050   9.47000027  50.14999771
C    11.54999924   9.61000061  51.17000198
C    10.27999973   8.98999977  51.04000092
C     9.35999966   9.11000061  52.11999893
C     8.03999996   8.78999996  51.88999939
C     7.64999962   8.22000027  50.65000153
C     8.53999996   8.07999992  49.61000061
C     9.88000011   8.55000019  49.72999954
C    13.92000008   9.64999962  50.14999771
C    14.63999939   9.13999939  49.03999710
C    16.01000023   8.89000034  48.99000168
C     6.23000050   7.90999985  50.26000214
H     5.89571285   8.55723763  49.44917679
H    10.47999954   8.07999992  47.71999741
H    11.82000065   9.96999931  52.15999985
H     9.76000023   9.53999996  53.04000092
H     7.30000019   8.97000027  52.65999603
H     8.25000000   7.73000002  48.61999893
H    16.51000023   8.60000038  48.06999969
H     5.65000010   7.88999987  51.18999863
H     6.25000000   6.85999966  49.93999863
