96

S    16.88999939   9.52999973  58.95000076
C    19.55999947   9.76000023  58.18000031
C    18.27000046   9.40999985  57.84000015
C    17.89999962   9.13000011  56.47999573
C    18.86000061   8.97000027  55.50000000
C    20.20000076   9.30000019  55.81999969
C    21.25000000   9.21000004  54.86000061
C    22.53999901   9.53999996  55.20000076
C    22.85000038  10.03999901  56.50000000
C    21.87000084  10.07999992  57.47000122
C    20.52000046   9.76000023  57.14000320
C    16.45000076   9.03999996  56.36000061
C    15.77999973   9.31999969  57.57999802
C    14.39000034   9.28999996  57.55000305
C    24.28999901  10.36000061  56.83000183
H    24.73808861   9.60607624  57.47723770
H    19.88999939  10.27999973  59.08000183
H    18.48999977   8.75000000  54.50000000
H    20.86999893   8.75000000  53.95000076
H    23.28000069   9.47000027  54.40999985
H    22.07999992  10.51000023  58.43999863
H    13.86999989   9.22000027  58.50000000
H    24.82999992  10.43000031  55.87999725
H    24.37999916  11.36000061  57.27000427
S    13.36999989   7.99000025  53.90999603
C    10.64000034   7.76999998  54.55999756
C    11.90000057   8.18000031  54.89999771
C    12.25999928   8.67999935  56.18999863
C    11.23000050   8.88000011  57.09000015
C     9.89999962   8.55000019  56.75000000
C     8.88000011   8.55000019  57.74000168
C     7.59000015   8.09000015  57.60000229
C     7.31999969   7.59000015  56.30000305
C     8.27000046   7.40000010  55.31999969
C     9.57999992   7.94000053  55.47999954
C    13.66000080   9.02000046  56.38999939
C    14.37000084   8.63000011  55.22999573
C    15.76000023   8.69999981  55.19000244
C     5.88999987   7.21000004  55.97000122
H     5.44866800   7.90758944  55.25817490
H    10.50000000   7.32999992  53.56999969
H    11.50000000   9.17000008  58.11000061
H     9.15999985   8.92000008  58.72000122
H     6.89000034   8.01999950  58.41999817
H     8.17000008   6.85999966  54.38000107
H    16.28999901   8.64000034  54.23999786
H     5.40000010   7.32999992  56.93999863
H     5.69000006   6.15999985  55.75000000
S    13.32999992   5.92000008  50.87999725
C    10.71000004   5.28999996  51.68000031
C    12.05999947   5.23999977  51.91999817
C    12.64000034   4.69999981  53.11000061
C    11.82999992   4.13000011  54.08000183
C    10.44000053   4.17000008  53.79000092
C     9.52999973   3.48000002  54.64000320
C     8.18000031   3.51999998  54.38999939
C     7.55999994   4.36999989  53.43000031
C     8.40999985   5.05000019  52.58999634
C     9.81999969   4.85000038  52.69000244
C    14.06999969   4.96000004  53.22000122
C    14.60999966   5.53999996  52.04000092
C    15.93999958   5.93999958  51.93999863
C     6.05999994   4.41000032  53.22000122
H     5.84727621   3.90655470  52.27692413
H    10.24000072   5.72000027  50.79999924
H    12.20999908   3.54999995  54.91000366
H     9.89000034   2.89999986  55.48999786
H     7.48000050   3.10999990  55.11000061
H     8.01999950   5.73999977  51.84999847
H    16.27000046   6.69000053  51.23000336
H     5.63000011   3.68000007  53.92000198
H     5.68000031   5.42999983  53.34000015
S    17.51000023   4.61000013  55.40000153
C    20.12000084   5.23000002  54.65999985
C    18.78000069   5.26999998  54.34999847
C    18.25000000   5.80999947  53.13999939
C    19.14999962   6.40999985  52.27000427
C    20.52000046   6.46000004  52.62000275
C    21.52000046   7.00000000  51.76000214
C    22.81999969   7.09999990  52.21000290
C    23.35000038   6.39999962  53.31999969
C    22.42000198   5.98000002  54.23999786
C    21.04999924   5.92999983  53.85000229
C    16.80999947   5.63000011  52.98999786
C    16.29999924   5.00000000  54.15999985
C    14.94999981   4.69999981  54.27000046
C    24.84999847   6.30000019  53.54000092
H    25.18425751   6.18621016  54.57122421
H    20.36000061   4.65000010  55.54000092
H    18.82999992   6.90000010  51.35000229
H    21.24000168   7.31999969  50.76000214
H    23.52999878   7.48000050  51.47999573
H    22.73999977   5.66999960  55.22999573
H    14.55000019   4.23999977  55.17000198
H    25.13999939   7.31999969  53.27999878
H    25.20999908   5.44000053  52.95999908
