96

S    16.97999954   9.57999992  58.76999664
C    19.63999939   9.89999962  57.98999786
C    18.36000061   9.50000000  57.65999603
C    18.02999878   9.11000061  56.32999802
C    19.01000023   8.96000004  55.35999680
C    20.34000015   9.27999973  55.70999908
C    21.44000053   9.00000000  54.85000229
C    22.72000122   9.32999992  55.20999908
C    23.02000046   9.94999981  56.45000076
C    21.98999786  10.21000004  57.32999802
C    20.65999985   9.81999969  57.01000214
C    16.60000038   8.85000038  56.23000336
C    15.90000057   9.22999954  57.39999771
C    14.51000023   9.31999969  57.44999695
C    24.40000153  10.32999992  56.95000076
H    24.72734261   9.65396786  57.73989105
H    19.93999863  10.43000031  58.88999939
H    18.70000076   8.59000015  54.38999939
H    21.28000069   8.47999954  53.90999603
H    23.52999878   8.93000031  54.61000061
H    22.09000015  10.73999977  58.27000046
H    14.04999924   9.39999962  58.43000031
H    25.15000153  10.26999950  56.16000366
H    24.40999985  11.38000011  57.25999832
S    13.30000019   8.05000019  53.88000107
C    10.59999943   7.83999968  54.65999985
C    11.90000057   8.19999981  54.94999695
C    12.30999947   8.71999931  56.22000122
C    11.31999969   8.89000034  57.18000031
C     9.98999977   8.47999954  56.97999954
C     8.92000008   8.60000038  57.91999817
C     7.62000036   8.26000023  57.62000275
C     7.26000023   7.72000027  56.35000229
C     8.30000019   7.50999975  55.47999954
C     9.65999985   7.86000013  55.72000122
C    13.73999977   8.93000031  56.35000229
C    14.42000008   8.52999973  55.17000198
C    15.80000019   8.42000008  55.15999603
C     5.78999996   7.53000021  56.05999756
H     5.46334505   8.10519600  55.19365692
H    10.21000004   7.57999992  53.68000031
H    11.64999962   9.26000023  58.15000153
H     9.22999954   8.94999981  58.89999771
H     6.84000015   8.36999989  58.37999725
H     8.19000053   7.17000008  54.45000076
H    16.26000023   8.03999996  54.25000000
H     5.18000031   7.82999992  56.91999817
H     5.66999960   6.44000006  55.98999786
S    17.17000008  10.14000034  52.52999878
C    19.88000107  10.19999981  51.95000076
C    18.60999870   9.81999969  51.55000305
C    18.20999908   9.26999950  50.28999710
C    19.19999886   9.17000008  49.33000183
C    20.55000114   9.40999985  49.68999863
C    21.56999969   9.53999996  48.69999695
C    22.86999893   9.89000034  48.95999908
C    23.16999817  10.26999950  50.28999710
C    22.20999908  10.34999943  51.27999878
C    20.88999939   9.89000034  51.00000000
C    16.77000046   9.22000027  50.11000061
C    16.03999901   9.59000015  51.26999664
C    14.65999985   9.71000004  51.30000305
C    24.60000038  10.71000004  50.47999954
H    25.06820107  10.19214249  51.31708527
H    20.03000069  10.81999969  52.83000183
H    19.04999924   8.85999966  48.29999924
H    21.31000137   9.31999969  47.67000198
H    23.55999947   9.85000038  48.11999893
H    22.60999870  10.80000019  52.18000031
H    14.15999985  10.18000031  52.14000320
H    25.19000053  10.57999992  49.55999756
H    24.48999786  11.78999996  50.61999893
S    13.60000038   8.14999962  47.80000305
C    10.90000057   7.88000011  48.57999802
C    12.15999985   8.36999989  48.81000137
C    12.46000099   8.97000027  50.07999802
C    11.44999981   9.17000008  51.00999832
C    10.10000038   8.89000034  50.70999908
C     9.00000000   9.11999989  51.59000015
C     7.76000023   8.61999989  51.26999664
C     7.42999983   8.23000050  49.93999863
C     8.48999977   7.97999954  49.09999847
C     9.84000015   8.28999996  49.43000031
C    13.89000034   9.19999981  50.24000168
C    14.61999989   8.73999977  49.12000275
C    16.01000023   8.78000069  49.02000046
C     6.01999998   7.75000000  49.68999863
H     5.50012350   8.29124165  48.89950180
H    10.69000053   7.27999973  47.70000076
H    11.75000000   9.34000015  52.04000092
H     9.22000027   9.68000031  52.49000168
H     6.96000004   8.71999931  51.98999786
H     8.28999996   7.42999983  48.18000031
H    16.53000069   8.43999958  48.13000107
H     5.50000000   7.96000004  50.63000107
H     5.95000029   6.65999985  49.55999756
