96

S    17.57999992   9.13000011  58.87000275
C    20.23999977   9.51000023  57.98999786
C    18.96000099   9.04999924  57.76000214
C    18.63000107   8.51000023  56.47999573
C    19.64999962   8.23999977  55.59000015
C    21.01000023   8.52999973  55.87999725
C    22.07999992   8.36999989  54.95999908
C    23.36000061   8.73999977  55.28999710
C    23.68999863   9.30999947  56.53999710
C    22.65000153   9.59999943  57.41000366
C    21.31999969   9.21000004  57.11000061
C    17.18000031   8.32999992  56.37000275
C    16.47999954   8.73999977  57.52999878
C    15.11999989   9.02000046  57.55000305
C    25.15000153   9.59000015  56.81000137
H    25.54242516   9.07627869  57.68760681
H    20.40999985  10.00000000  58.94000244
H    19.40000153   7.90000010  54.59000015
H    21.83000183   7.99000025  53.96999741
H    24.25000000   8.63000011  54.68000031
H    22.89999962  10.07999992  58.34999847
H    14.57999992   9.35999966  58.43000031
H    25.82999992   9.43000031  55.96000290
H    25.27000046  10.67000008  56.97000122
S    13.90999985   7.68000031  54.02000046
C    11.18000031   7.95000029  54.65000153
C    12.48999977   8.23999977  54.93999863
C    12.94999981   8.90999985  56.11999893
C    11.98999977   9.39000034  56.98999786
C    10.60999966   9.19000053  56.73999786
C     9.56999969   9.40999985  57.67000198
C     8.23999977   9.04999924  57.60000229
C     7.88000011   8.30000019  56.45000076
C     8.85999966   8.01999950  55.52000046
C    10.21999931   8.43000031  55.58000183
C    14.37000084   8.76000023  56.39999771
C    15.03999901   8.11999989  55.31999969
C    16.42000008   7.95000029  55.27000046
C     6.46000004   7.78999996  56.27999878
H     5.96493149   8.34164715  55.48081589
H    10.86999989   7.30000019  53.82999802
H    12.25999928   9.98000050  57.85999680
H     9.92000008   9.75000000  58.63999939
H     7.75000000   9.13999939  58.55999756
H     8.57999992   7.36000013  54.71000290
H    16.87000084   7.69999981  54.31000137
H     5.84000015   7.77999973  57.18000031
H     6.65000010   6.75000000  56.00000000
S    13.92000008   5.89999962  51.27999878
C    11.21000099   5.32000017  51.81000137
C    12.53000069   5.25000000  52.16999817
C    13.00000000   4.46999979  53.27999878
C    12.02999973   4.09999990  54.20000076
C    10.64000034   4.26999998  53.96999741
C     9.63999939   3.81999993  54.87999725
C     8.30000019   3.84999990  54.58000183
C     7.88000011   4.55999994  53.43000031
C     8.82999992   4.94000006  52.50000000
C    10.22999954   4.80999994  52.70000076
C    14.44000053   4.50000000  53.47999954
C    15.07999992   5.23999977  52.45999908
C    16.43000031   5.56999969  52.42000198
C     6.44000006   4.92000008  53.11999893
H     6.07041740   4.20926380  52.38083649
H    10.90999985   5.84999990  50.90999985
H    12.30999947   3.67000008  55.15999603
H    10.01000023   3.26999998  55.73999786
H     7.68000031   3.58000016  55.43000031
H     8.52000046   5.50000000  51.63000107
H    16.82999992   6.17000008  51.60999680
H     5.88000011   4.92000008  54.06000137
H     6.51000023   5.86999989  52.58999634
S    17.73999977   3.71000004  55.66999817
C    20.45999908   4.28999996  55.07999802
C    19.11999893   4.46999979  54.84000397
C    18.64999962   5.13999987  53.67000198
C    19.60000038   5.58000040  52.76000214
C    20.97999954   5.32000017  52.93000031
C    21.90999985   5.75000000  51.93999863
C    23.26000023   5.71000004  52.18999863
C    23.74000168   5.05999994  53.34999847
C    22.85000038   4.51000023  54.25000000
C    21.44000053   4.67999983  54.13000107
C    17.20999908   5.07999992  53.47000122
C    16.55999947   4.39000034  54.52999878
C    15.19999981   4.09000015  54.58000183
C    25.22999954   4.92999983  53.59000397
H    25.54316902   5.39975643  54.52239609
H    20.79000092   3.54999995  55.79999924
H    19.29000092   5.88999987  51.77000046
H    21.47000122   6.32999992  51.12999725
H    23.95999908   6.17000008  51.49000168
H    23.22000122   4.03999996  55.15999603
H    14.80000019   3.63999987  55.47999954
H    25.75000000   5.42000008  52.76000214
H    25.51000214   3.86999989  53.54000092
