96

S    16.72999954   9.59000015  58.52000427
C    19.31999969   9.86999989  57.70999908
C    18.09999847   9.31999969  57.42000198
C    17.72999954   8.78000069  56.13999939
C    18.71999931   8.80999947  55.18000031
C    20.03999901   9.23999977  55.45999908
C    21.14000130   9.11999989  54.56999969
C    22.42000198   9.47000027  54.89999771
C    22.75000000  10.06000042  56.14999771
C    21.70000076  10.21000004  57.02999878
C    20.36000061   9.81000042  56.73999786
C    16.28999901   8.67000008  56.00000000
C    15.65000057   9.06999969  57.19999695
C    14.27999973   9.11000061  57.38999939
C    24.13999939  10.51000023  56.52999878
H    24.71611023   9.79163933  57.11322403
H    19.47000122  10.29000092  58.69999695
H    18.36000061   8.39999962  54.23999786
H    20.89999962   8.75000000  53.56999969
H    23.23999786   9.26999950  54.20999908
H    21.84000015  10.54999924  58.04999924
H    13.78000069   9.43000031  58.29999924
H    24.70000076  10.76000023  55.61999893
H    24.09000015  11.46000004  57.06999969
S    12.89000034   7.78999996  53.92000198
C    10.26999950   7.55999994  54.85000229
C    11.54999924   8.01999950  55.06999969
C    11.97000027   8.60999966  56.30000305
C    11.00000000   8.76000023  57.28000259
C     9.63999939   8.43999958  57.08000183
C     8.60999966   8.76999950  58.01000214
C     7.30000019   8.38999939  57.77999878
C     6.94000006   7.73999977  56.58000183
C     7.96000004   7.30000019  55.75000000
C     9.30999947   7.71000004  55.87999725
C    13.42000008   8.71000004  56.35000229
C    14.06000042   8.25000000  55.17000198
C    15.44000053   8.25000000  54.97000122
C     5.50000000   7.51999950  56.18999863
H     5.20838737   8.06766224  55.29382324
H     9.82999992   7.30000019  53.88999939
H    11.32999992   9.26999950  58.16999817
H     8.85999966   9.28999996  58.92000198
H     6.51000023   8.76999950  58.41999817
H     7.68000031   6.76000023  54.85000229
H    15.88000107   7.92000008  54.02999878
H     4.75000000   7.53000021  57.00000000
H     5.73000002   6.48000002  55.93999863
S    17.01000023  10.11999989  52.56000137
C    19.63000107  10.26000023  51.77999878
C    18.37000084   9.77000046  51.47999573
C    18.04999924   9.03999996  50.28999710
C    19.07999992   8.76999950  49.40999985
C    20.38999939   9.19000053  49.72999954
C    21.48999977   8.86999989  48.88000107
C    22.78000069   9.22000027  49.18000031
C    23.06999969   9.92000008  50.38999939
C    22.04999924  10.26999950  51.25000000
C    20.72000122   9.86999989  50.94999695
C    16.61000061   8.85000038  50.22999573
C    15.93999958   9.30999947  51.39999771
C    14.55999947   9.39999962  51.56000137
C    24.50000000  10.36000061  50.61999893
H    24.94347382   9.95229053  51.52840424
H    19.78999901  10.95000076  52.60000229
H    19.04999924   8.09000015  48.55999756
H    21.19999886   8.39999962  47.95000076
H    23.50000000   9.06000042  48.37999725
H    22.32000160  10.77000046  52.16999817
H    14.09999943   9.85000038  52.43000031
H    25.13999939  10.01999950  49.79999924
H    24.47999954  11.44000053  50.79999924
S    13.35999966   8.36000061  47.88000107
C    10.65000057   8.38999939  48.63999939
C    11.97000027   8.61999989  48.95000076
C    12.34000015   9.04999924  50.27000046
C    11.38000011   9.39000034  51.19999695
C    10.01999950   9.06000042  50.97000122
C     9.01000023   9.13000011  51.97000122
C     7.77999973   8.55000019  51.77999878
C     7.46999979   8.02999973  50.48999786
C     8.38000011   8.03999996  49.45999908
C     9.71000004   8.47000027  49.68999863
C    13.78999901   9.06000042  50.45000076
C    14.44000053   8.76000023  49.22999954
C    15.80999947   8.55000019  49.13000107
C     6.01999998   7.63999987  50.27000046
H     5.55665112   8.23878860  49.48587036
H    10.36999893   8.01000023  47.65999603
H    11.68000031   9.67000008  52.21000290
H     9.27999973   9.65999985  52.88999939
H     7.02000046   8.45000076  52.55000305
H     8.15999985   7.44999981  48.56999969
H    16.23999977   8.11999989  48.22999954
H     5.55999994   7.81000042  51.25000000
H     5.91000032   6.57000017  50.05000305
