96

S    16.62999916  10.19000053  58.61000061
C    19.31999969  10.19000053  57.95000076
C    18.04000092   9.80000019  57.61000061
C    17.73999977   9.23999977  56.32999802
C    18.76000023   8.94999981  55.44000244
C    20.10000038   9.35000038  55.68999863
C    21.18999863   9.19999981  54.78000259
C    22.46999931   9.52999973  55.13000107
C    22.70999908  10.22999954  56.33999634
C    21.63000107  10.47000027  57.15999985
C    20.31999969   9.96999931  56.95999908
C    16.31000137   9.02999973  56.18999863
C    15.60999966   9.61999989  57.27000427
C    14.22999954   9.76000023  57.35000229
C    24.05999947  10.80999947  56.70999908
H    24.63597679  10.17002487  57.37841797
H    19.47999954  10.80000019  58.82999802
H    18.47999954   8.52000046  54.47999954
H    20.85000038   8.96000004  53.76999664
H    23.29000092   9.38000011  54.43000031
H    21.80999947  11.07999992  58.04999924
H    13.69999981  10.25000000  58.15999985
H    24.69000053  10.93999958  55.83000183
H    23.90000153  11.73999977  57.28000259
S    13.12000084   8.27000046  53.77999878
C    10.43000031   8.13000011  54.52000046
C    11.69999981   8.59000015  54.79999924
C    12.09000015   9.10000038  56.06999969
C    11.10000038   9.32999992  57.01000214
C     9.76000023   9.02999973  56.68000031
C     8.73000050   9.19000053  57.63999939
C     7.42000008   8.82000065  57.43000031
C     7.09999990   8.15999985  56.22000122
C     8.02999973   8.05999947  55.20999908
C     9.38000011   8.43999958  55.41999817
C    13.53000069   9.18000031  56.29000092
C    14.18000031   8.63000011  55.14999771
C    15.57000065   8.50000000  55.13000107
C     5.73000002   7.57000017  55.94999695
H     5.13835049   8.16164970  55.25142670
H    10.21000004   7.59999990  53.59000397
H    11.36000061   9.71000004  57.98999786
H     9.04999924   9.68000031  58.54999924
H     6.61000013   8.76999950  58.15999985
H     7.73999977   7.60999966  54.26000214
H    15.98999977   8.09000015  54.20999908
H     5.23000002   7.60999966  56.93000031
H     5.86999989   6.56000042  55.56000137
S    13.60999966   6.21999979  51.14999771
C    11.00000000   5.51000023  51.79999924
C    12.34000015   5.36999989  52.04999924
C    12.86000061   4.71000004  53.20999908
C    11.97000027   4.11000013  54.08000183
C    10.57999992   4.30999994  53.88999939
C     9.59999943   3.79999995  54.79000092
C     8.26000023   3.91999984  54.50000000
C     7.77999973   4.61000013  53.36000061
C     8.67999935   5.09999990  52.43000031
C    10.06999969   4.97000027  52.71999741
C    14.27000046   5.03999996  53.40000153
C    14.82999992   5.84000015  52.37999725
C    16.15999985   6.23000050  52.34000397
C     6.32999992   5.00000000  53.20999908
H     5.89669085   4.48855305  52.35048294
H    10.72000027   5.97000027  50.84999847
H    12.35000038   3.77999997  55.04000092
H     9.96000004   3.30999994  55.68999863
H     7.57999992   3.37000012  55.13000107
H     8.42000008   5.75000000  51.59999847
H    16.65999985   6.80999994  51.56999969
H     5.78999996   4.77999973  54.13999939
H     6.43000031   6.06999969  53.02000046
S    17.64999962   4.53000021  55.66999817
C    20.27000046   5.09000015  54.97000122
C    18.94000053   5.18000031  54.64000320
C    18.38000107   5.82999992  53.48999786
C    19.31999969   6.44999981  52.69000244
C    20.71000099   6.38999987  52.95000076
C    21.68000031   7.04999971  52.15999985
C    23.02999878   6.91999960  52.38999939
C    23.46999931   6.15999985  53.50000000
C    22.60999870   5.56999969  54.38999939
C    21.21999931   5.69999981  54.09999847
C    16.94000053   5.69000006  53.36999893
C    16.40999985   4.98000002  54.47999954
C    15.06999969   4.61000013  54.47000122
C    24.96000099   5.97000027  53.70999908
H    25.26008987   6.66306257  54.49594498
H    20.69000053   4.63000011  55.86000061
H    18.97999954   6.98000002  51.79999924
H    21.35000038   7.53999996  51.24000168
H    23.75000000   7.30999994  51.66999817
H    23.01000214   5.00000000  55.22999573
H    14.75999928   3.91000009  55.24000168
H    25.52000046   6.15000010  52.77999878
H    25.20999908   4.92999983  53.96999741
