96

S    16.69999886   9.71000004  58.30999756
C    19.42000008   9.35000038  58.01000214
C    18.17000008   9.18000031  57.47000122
C    17.86000061   8.53999996  56.23000336
C    18.94000053   8.27999973  55.40000153
C    20.23999977   8.67000008  55.77999878
C    21.35999870   8.76999950  54.89999771
C    22.60999870   9.11000061  55.34999847
C    22.84000015   9.46000004  56.70000076
C    21.77999878   9.46000004  57.57999802
C    20.50000000   9.02000046  57.15999985
C    16.44000053   8.43000031  55.94999695
C    15.70000076   9.03999996  57.00000000
C    14.30999947   9.06999969  57.04999924
C    24.15999985  10.06000042  57.15999985
H    24.68732452   9.34739876  57.79421616
H    19.60000038   9.96000004  58.89999771
H    18.67000008   8.13000011  54.34999847
H    21.31999969   8.52000046  53.85000229
H    23.42000008   9.15999985  54.62999725
H    21.93000031   9.89000034  58.55999756
H    13.80000019   9.63999939  57.81000137
H    24.79999924  10.34999943  56.31999969
H    23.85000038  10.98000050  57.65999603
S    13.14000034   7.46999979  53.68000031
C    10.39999962   7.49000025  54.43000031
C    11.72000027   7.78999996  54.68000031
C    12.10999966   8.47000027  55.87999725
C    11.10999966   8.89000034  56.73999786
C     9.77000046   8.48999977  56.56000137
C     8.76999950   8.52999973  57.57999802
C     7.48000050   8.11999989  57.38999939
C     7.13000011   7.55000019  56.13999939
C     8.06999969   7.26999998  55.17000198
C     9.36999989   7.81000042  55.35999680
C    13.55999947   8.48999977  56.02000427
C    14.29999924   7.96000004  54.93000031
C    15.69000053   7.88999987  54.89999771
C     5.73999977   7.03000021  55.84999847
H     5.33309507   7.65820408  55.05760574
H    10.11999989   7.04999971  53.47999954
H    11.35000038   9.44000053  57.64999771
H     8.97999954   9.09000015  58.48999786
H     6.76000023   8.23000050  58.20000076
H     7.85000038   6.63000011  54.31999969
H    16.13999939   7.42999983  54.02000046
H     5.17000008   7.17000008  56.77999878
H     5.92999983   5.98000002  55.59000015
S    14.04999924   5.55000019  50.65000153
C    11.36999989   5.09999990  51.26999664
C    12.69000053   4.82999992  51.53999710
C    13.12000084   4.23999977  52.77000046
C    12.20000076   3.81000018  53.69999695
C    10.82999992   4.05999994  53.47000122
C     9.89000034   3.60000014  54.43000031
C     8.56000042   3.73000002  54.13000107
C     8.10000038   4.38000011  52.95999908
C     9.01000023   4.84000015  52.02999878
C    10.40999985   4.65000010  52.22000122
C    14.53999996   4.46999979  53.04000092
C    15.17000008   5.09999990  51.93999863
C    16.52000046   5.44000053  51.90000153
C     6.65000010   4.79999971  52.83000183
H     6.10866690   4.37975454  51.98238754
H    11.03000069   5.75000000  50.47000122
H    12.56000042   3.35999990  54.62999725
H    10.21999931   3.19999981  55.38999939
H     7.86999989   3.51000023  54.93999863
H     8.64000034   5.32999992  51.13999939
H    16.94000053   5.95000029  51.04000092
H     6.14000034   4.44000006  53.73000336
H     6.67000008   5.88000011  52.64999771
S    17.79999924   4.13000011  55.38999939
C    20.46999931   4.82999992  54.93000031
C    19.15999985   4.82999992  54.48999786
C    18.70000076   5.44000053  53.27999878
C    19.68000031   5.95000029  52.43999863
C    21.04999924   5.92999983  52.77999878
C    22.07999992   6.39999962  51.91999817
C    23.39999962   6.26999950  52.30999756
C    23.75000000   5.73000002  53.56999969
C    22.79999924   5.36000013  54.50000000
C    21.44000053   5.38999987  54.06000137
C    17.28000069   5.22000027  53.04999924
C    16.61999893   4.65000010  54.16999817
C    15.31999969   4.15999985  54.15999985
C    25.19000053   5.47999954  53.93000031
H    25.53021240   5.79895067  54.91520309
H    20.71000099   4.44999981  55.91999817
H    19.40000153   6.24000025  51.44000244
H    21.93000031   6.84000015  50.94999695
H    24.14999962   6.44000006  51.55000305
H    23.06999969   4.92999983  55.45999908
H    14.80999947   3.75000000  55.02999878
H    25.81999969   5.93999958  53.15999985
H    25.48000145   4.44999981  53.68000031
