96

S    17.14999962   9.63000011  58.77999878
C    19.81999969   9.80000019  57.90999985
C    18.53999901   9.31999969  57.71999741
C    18.06999969   8.85000038  56.45000076
C    19.01000023   8.71999931  55.45000076
C    20.35000038   9.09000015  55.70000076
C    21.37000084   8.80999947  54.73999786
C    22.70999908   8.94999981  55.04000092
C    23.13999939   9.40999985  56.31000137
C    22.21999931   9.77999973  57.25999832
C    20.84000015   9.63999939  56.93000031
C    16.61999893   8.69999981  56.37000275
C    15.98000050   9.25000000  57.50999832
C    14.59000015   9.30000019  57.60000229
C    24.61000061   9.27999973  56.65000153
H    24.86682129   9.05171299  57.68442154
H    20.09000015  10.08999920  58.92000198
H    18.77000046   8.17000008  54.54000092
H    21.09000015   8.39999962  53.76999664
H    23.39999962   8.43000031  54.38999939
H    22.39999962  10.03000069  58.29999924
H    14.00000000   9.68999958  58.41999817
H    25.10999870   8.56999969  55.97999954
H    25.15000153  10.22999954  56.56999969
S    13.52000046   7.97999954  53.97999573
C    10.88000107   7.50999975  54.77000427
C    12.10999966   8.05999947  55.05000305
C    12.41000080   8.65999985  56.31999969
C    11.36000061   8.82999992  57.19999695
C    10.03999901   8.40999985  56.90000153
C     8.90999985   8.64000034  57.75000000
C     7.64999962   8.15999985  57.48000336
C     7.44999981   7.42999983  56.27999878
C     8.47999954   7.30000019  55.37000275
C     9.78999996   7.76000023  55.63999939
C    13.83999920   8.80999947  56.52000046
C    14.55000019   8.47999954  55.34000015
C    15.92000008   8.31999969  55.21999741
C     6.05000019   7.07000017  55.84000015
H     5.55279112   7.73057795  55.12970352
H    10.88000107   6.94999981  53.83999634
H    11.46999931   9.22999954  58.20999908
H     9.11999989   9.22999954  58.62999725
H     6.81999969   8.43999958  58.11999893
H     8.30999947   7.03000021  54.33000183
H    16.35000038   8.00000000  54.27000046
H     5.46999979   6.94000006  56.76000214
H     6.25000000   6.11000013  55.34999847
S    17.29999924  10.00000000  52.69000244
C    20.00000000  10.03000069  52.04000092
C    18.71000099   9.78999996  51.63000107
C    18.38000107   9.28999996  50.33000183
C    19.40999985   9.15000057  49.41999817
C    20.75000000   9.40999985  49.77000427
C    21.88999939   9.30999947  48.90999603
C    23.16999817   9.71000004  49.23999786
C    23.44000053   9.90999985  50.61000061
C    22.39999962  10.01999950  51.51000214
C    21.04999924   9.84000015  51.11000061
C    16.93000031   9.30000019  50.18000031
C    16.21000099   9.70000076  51.32999802
C    14.82999992   9.82999992  51.31000137
C    24.75000000  10.51000023  51.06999969
H    25.41800690   9.79224873  51.54613113
H    20.15999985  10.31999969  53.08000183
H    19.30999947   9.10000038  48.34000015
H    21.70000076   8.93999958  47.90999985
H    23.81999969   9.81000042  48.36999893
H    22.50999832  10.31000042  52.56000137
H    14.22000027  10.14999962  52.15000153
H    25.30999947  10.93999958  50.21999741
H    24.69000053  11.26000023  51.86999893
S    13.71000099   8.36000061  47.80000305
C    11.02000046   8.23999977  48.57999802
C    12.30999947   8.60999966  48.87000275
C    12.69999981   9.22999954  50.10000229
C    11.69999981   9.22999954  51.05999756
C    10.34999943   8.88000011  50.79999924
C     9.36999989   8.69999981  51.81000137
C     8.10000038   8.25000000  51.50000000
C     7.69999981   8.06999969  50.14999771
C     8.61999989   8.13000011  49.13999939
C     9.94999981   8.52999973  49.47000122
C    14.11999893   9.51000023  50.13999939
C    14.82999992   8.97000027  49.03999710
C    16.21999931   8.90999985  49.03999710
C     6.32999992   7.49000025  49.87999725
H     5.89621162   8.04468155  49.04797745
H    10.77999973   7.82999992  47.60000229
H    11.97000027   9.42000008  52.09999847
H     9.59000015   8.71999931  52.87000275
H     7.49000025   7.96000004  52.35000229
H     8.42000008   7.59999990  48.20999908
H    16.81999969   8.63000011  48.18000031
H     5.66999960   7.55000019  50.75000000
H     6.46000004   6.43000031  49.62999725
