96

S    17.29999924   9.84000015  58.67000198
C    19.98999977  10.15999985  57.81999969
C    18.71999931   9.65999985  57.62000275
C    18.32999992   9.04999924  56.38999939
C    19.34000015   8.92000008  55.45999908
C    20.69999886   9.26000023  55.68000031
C    21.75000000   8.93000031  54.78000259
C    23.05000114   9.26000023  55.10000229
C    23.43000031   9.82999992  56.33999634
C    22.39999962  10.29000092  57.11999893
C    21.04000092   9.96000004  56.88999939
C    16.90000153   8.84000015  56.25999832
C    16.20000076   9.26000023  57.42000198
C    14.81999969   9.47000027  57.43000031
C    24.89999962  10.08999920  56.63000107
H    25.17000008   9.75605392  57.63183975
H    20.31999969  10.50000000  58.80000305
H    19.04000092   8.60000038  54.45999908
H    21.51000023   8.51000023  53.81000137
H    23.78000069   8.89000034  54.38000107
H    22.57999802  10.77000046  58.08000183
H    14.26000023   9.77999973  58.30999756
H    25.52999878   9.55000019  55.90999985
H    25.13000107  11.13999939  56.44000244
S    13.75000000   8.10000038  53.88000107
C    11.00999928   8.01999950  54.59999847
C    12.30999947   8.36000061  54.88999939
C    12.65999985   9.06000042  56.07999802
C    11.65999985   9.31999969  57.00000000
C    10.31000042   8.94999981  56.76000214
C     9.28999996   9.13000011  57.72999573
C     8.03999996   8.59000015  57.49000168
C     7.67000008   7.97999954  56.26999664
C     8.64000034   7.82999992  55.31000137
C     9.96999931   8.30000019  55.52999878
C    14.09999943   9.11999989  56.29000092
C    14.84000015   8.71999931  55.13999939
C    16.21999931   8.59000015  55.06000137
C     6.32000017   7.34000015  56.03000259
H     5.54666233   8.05657864  55.75329971
H    10.80999947   7.57000017  53.62999725
H    11.95000076   9.77000046  57.95000076
H     9.51000023   9.56999969  58.69999695
H     7.34000015   8.43999958  58.29999924
H     8.42000008   7.40999985  54.34000015
H    16.72999954   8.34999943  54.13000107
H     6.03999996   6.65000010  56.84000015
H     6.65999985   6.77999973  55.15999603
S    13.88000011   5.92999983  51.16000366
C    11.16000080   5.32000017  51.69000244
C    12.48999977   5.29999971  52.04999924
C    12.90999985   4.73000002  53.29999924
C    11.96000004   4.23000002  54.16999817
C    10.57999992   4.33999968  53.86000061
C     9.57999992   3.78999996  54.71000290
C     8.25000000   3.91999984  54.38000107
C     7.82000017   4.75000000  53.30999756
C     8.76999950   5.10999966  52.37999725
C    10.15999985   4.92999983  52.61000061
C    14.32999992   4.84000015  53.56999969
C    14.98000050   5.46000004  52.47000122
C    16.31999969   5.84999990  52.43999863
C     6.35999966   5.03999996  53.06999969
H     5.94060421   4.35759258  52.33072281
H    10.76000023   5.75999975  50.77999878
H    12.13000107   3.65999985  55.07999802
H     9.85999966   3.32999992  55.65000153
H     7.48000050   3.45000005  54.98000336
H     8.34999943   5.63000011  51.52999878
H    16.81999969   6.50000000  51.73999786
H     5.88000011   4.78999996  54.02999878
H     6.25999975   6.11000013  52.88000107
S    17.64999962   4.55000019  55.93999863
C    20.27000046   5.15999985  55.35999680
C    18.96000099   5.22000027  54.94999695
C    18.53999901   5.65999985  53.64999771
C    19.52999878   6.12999964  52.81000137
C    20.89999962   6.12999964  53.15999985
C    21.94000053   6.52999973  52.28000259
C    23.26999855   6.50000000  52.63999939
C    23.65999985   5.82999992  53.82999802
C    22.65000153   5.40999985  54.66999817
C    21.25999832   5.59000015  54.45000076
C    17.09000015   5.51999998  53.55999756
C    16.46999931   4.86999989  54.65999985
C    15.14000034   4.48999977  54.65999985
C    25.10999870   5.51000023  54.08000183
H    25.38642311   5.61631680  55.12899399
H    20.48000145   4.71000004  56.32999802
H    19.25000000   6.43000031  51.81000137
H    21.65999985   7.00999975  51.35000229
H    24.03000069   6.63000011  51.86999893
H    22.90999985   4.85000038  55.56999969
H    14.78000069   3.96000004  55.54000092
H    25.72999954   6.25999975  53.56999969
H    25.40999985   4.51999998  53.72000122
