96

S    16.90000153   9.44000053  58.72000122
C    19.67000008   9.26000023  58.18999863
C    18.37000084   9.06999969  57.78999710
C    18.02999878   8.59000015  56.49000168
C    19.03000069   8.46000004  55.54999924
C    20.35000038   8.85000038  55.86000061
C    21.42000008   8.75000000  54.92000198
C    22.72000122   8.93000031  55.34000015
C    23.06999969   9.22999954  56.68000031
C    22.04999924   9.46000004  57.56999969
C    20.69000053   9.22999954  57.21000290
C    16.59000015   8.50000000  56.26999664
C    15.84000015   8.85000038  57.42000198
C    14.45000076   8.80999947  57.44999695
C    24.53000069   9.38000011  57.05999756
H    24.86606598   8.87947655  57.96809387
H    19.96999931   9.68000031  59.15000153
H    18.78999901   7.95000029  54.61999893
H    21.14000130   8.36000061  53.95000076
H    23.38999939   8.80999947  54.48999786
H    22.25000000   9.86999989  58.55999756
H    13.94999981   9.22999954  58.31999969
H    25.10000038   9.02000046  56.19999695
H    24.68000031  10.47000027  57.09000015
S    13.35999966   7.77999973  53.82999802
C    10.60999966   7.73000002  54.38000107
C    11.90000057   8.00000000  54.79999924
C    12.25999928   8.32999992  56.14999771
C    11.23000050   8.47999954  57.04999924
C     9.88000011   8.27000046  56.66999817
C     8.89999962   8.42000008  57.69000244
C     7.59000015   8.27000046  57.29000092
C     7.30000019   7.71000004  56.02000427
C     8.22000027   7.50999975  55.01999664
C     9.56999969   7.82000017  55.34000015
C    13.69999981   8.42000008  56.33999634
C    14.46000004   8.19999981  55.15999603
C    15.85000038   8.19999981  55.12000275
C     5.84000015   7.46000004  55.68999863
H     5.47691488   8.15769291  54.93534851
H    10.31999969   7.46000004  53.36999893
H    11.44000053   8.71000004  58.09000015
H     9.22999954   8.69999981  58.68999863
H     6.75000000   8.69999981  57.83000183
H     8.13000011   7.18999958  53.97999573
H    16.32999992   8.01999950  54.16999817
H     5.21000004   7.36999989  56.58000183
H     6.02999973   6.44999981  55.28999710
S    17.20000076   9.72999954  52.37999725
C    19.86999893   9.81999969  51.68000031
C    18.59000015   9.47000027  51.31000137
C    18.22000122   9.02999973  50.00000000
C    19.26000023   8.75000000  49.13999939
C    20.61000061   9.09000015  49.41999817
C    21.67000008   8.88000011  48.48999786
C    22.96999931   9.09000015  48.87000275
C    23.26999855   9.63000011  50.13999939
C    22.26000023   9.89999962  51.03000259
C    20.88999939   9.63999939  50.72000122
C    16.77000046   8.98999977  49.88999939
C    16.06999969   9.31999969  51.07999802
C    14.68000031   9.39999962  51.07999802
C    24.68000031  10.05000019  50.52999878
H    25.14430428   9.43569088  51.30145645
H    19.98999977  10.34000015  52.62000275
H    19.06999969   8.25000000  48.18999863
H    21.45999908   8.47000027  47.50000000
H    23.75000000   9.01000023  48.11999893
H    22.50000000  10.43000031  51.95000076
H    14.04000092   9.55999947  51.93999863
H    25.29000092  10.13000011  49.61999893
H    24.68000031  11.07999992  50.90000153
S    13.60999966   8.10999966  47.48000336
C    10.93999958   8.25000000  48.09000015
C    12.22000027   8.53999996  48.50000000
C    12.53999901   9.18000031  49.73999786
C    11.51999950   9.26999950  50.66999817
C    10.19999981   8.85999966  50.35999680
C     9.11999989   9.06000042  51.26999664
C     7.81000042   8.82000065  50.93000031
C     7.53000021   8.28999996  49.64000320
C     8.53999996   8.10000038  48.73000336
C     9.88000011   8.50000000  49.00000000
C    13.99000072   9.28999996  49.86000061
C    14.67000008   8.80000019  48.72000122
C    16.04999924   8.61999989  48.75000000
C     6.19999981   7.71000004  49.22999954
H     5.50477934   8.43359756  48.80435181
H    10.85000038   7.69000006  47.16999817
H    11.75000000   9.57999992  51.68000031
H     9.38000011   9.48000050  52.23999786
H     7.00999975   9.07999992  51.60999680
H     8.38000011   7.57999992  47.78999710
H    16.56999969   8.14999962  47.93000031
H     5.73999977   7.28999996  50.13000107
H     6.35999966   6.90000010  48.52000427
