96

S    14.70000076  37.36999893  57.39999771
C    17.43000031  37.22999954  56.76000214
C    16.11999893  37.04999924  56.38999939
C    15.71000004  36.44000244  55.15999603
C    16.67000008  36.02000046  54.26000214
C    18.02000046  36.34000015  54.54999924
C    19.04999924  36.15999985  53.59000397
C    20.34000015  36.54999924  53.86000061
C    20.73999786  37.19000244  55.06999969
C    19.77000046  37.37999725  56.02000427
C    18.43000031  36.95999908  55.79000092
C    14.26000023  36.31999969  55.04000092
C    13.55999947  36.88000107  56.13999939
C    12.18000031  37.04999924  56.12999725
C    22.11999893  37.75000000  55.31999969
H    22.66611671  37.10458755  56.00796509
H    17.72999954  37.50000000  57.77000046
H    16.36000061  35.58000183  53.30999756
H    18.90999985  35.68000031  52.63000107
H    21.02999878  36.37000275  53.04000092
H    19.86999893  37.79999924  57.02000046
H    11.59999943  37.29999924  57.01000214
H    22.63000107  37.70999908  54.34999847
H    22.00000000  38.75000000  55.75000000
S    11.13999939  35.33000183  52.65999603
C     8.39999962  35.42000198  53.36000061
C     9.72000027  35.68000031  53.66000366
C    10.01999950  36.34000015  54.88999939
C     9.01000023  36.56999969  55.80999756
C     7.64999962  36.40999985  55.47000122
C     6.61000013  36.72999954  56.38000107
C     5.27999973  36.53000259  56.11000061
C     4.96000004  35.88999939  54.87999725
C     5.93999958  35.59000015  53.95999908
C     7.31999969  35.82999802  54.19000244
C    11.46000004  36.52000046  55.05000305
C    12.18000031  36.01000214  53.94000244
C    13.55999947  35.88999939  53.90999603
C     3.51999998  35.59999847  54.54999924
H     3.14306951  36.20450974  53.72502136
H     8.14000034  34.95999908  52.41000366
H     9.17000008  36.98999786  56.79999924
H     6.93000031  37.02000046  57.37999725
H     4.40000010  36.74000168  56.72000122
H     5.69000006  35.02000046  53.06999969
H    14.11999893  35.50000000  53.06999969
H     2.94000006  35.84999847  55.45000076
H     3.42999983  34.50999832  54.45000076
S    11.72000027  33.51000214  49.72999954
C     9.02000046  33.08000183  50.38000107
C    10.34000015  32.75000000  50.56000137
C    10.76000023  32.06000137  51.73999786
C     9.84000015  31.63000107  52.68000031
C     8.46000004  31.80999947  52.43000031
C     7.40999985  31.42999840  53.30999756
C     6.06999969  31.63999939  53.09000015
C     5.66999960  32.33000183  51.90999985
C     6.65999985  32.88999939  51.13999939
C     8.05000019  32.61000061  51.30000305
C    12.18999958  32.20000076  52.01000214
C    12.82999992  32.93999863  51.00000000
C    14.19999981  33.20999908  50.96000290
C     4.23000002  32.70000076  51.68000031
H     3.64470387  31.88629532  51.25173187
H     8.78999996  33.81999969  49.61000061
H    10.14999962  31.12999916  53.59000397
H     7.73999977  30.88999939  54.20000076
H     5.27999973  31.38000107  53.77999878
H     6.60000038  33.59999847  50.31999969
H    14.73000050  33.65000153  50.12000275
H     3.75000000  33.13000107  52.56999969
H     4.28000021  33.50000000  50.93000031
S    15.57999992  31.65999985  54.26000214
C    18.29000092  32.36999893  53.66000366
C    16.94000053  32.36999893  53.36999893
C    16.42000008  33.08000183  52.23999786
C    17.35000038  33.55999756  51.33999634
C    18.73999977  33.51000214  51.58000183
C    19.67000008  34.11000061  50.68000031
C    21.02000046  33.91999817  50.87999725
C    21.54000092  33.15000153  51.95000076
C    20.66999817  32.70000076  52.91999817
C    19.26000023  32.90000153  52.77999878
C    14.96999931  32.99000168  52.09999847
C    14.34000015  32.25000000  53.13000107
C    13.01000023  31.87000084  53.09999847
C    23.00000000  32.92000198  52.28000259
H    23.37045670  33.44006729  53.16340256
H    18.61999893  31.75000000  54.47999954
H    16.97999954  34.01000214  50.41999817
H    19.18000031  34.52999878  49.80999756
H    21.70999908  34.40000153  50.19000244
H    20.98999977  32.22999954  53.83999634
H    12.50000000  31.52000046  53.99000168
H    23.67000198  33.15999985  51.45000076
H    22.95000076  31.81999969  52.35000229
