96

S    15.21999931  37.26000214  57.30999756
C    17.88999939  37.19000244  56.56999969
C    16.59000015  36.91999817  56.23000336
C    16.22999954  36.25000000  55.00999832
C    17.28999901  35.98999786  54.16999817
C    18.63999939  36.31000137  54.43999863
C    19.69000053  36.37000275  53.47000122
C    20.95000076  36.86999893  53.73000336
C    21.28000069  37.27999878  55.05000305
C    20.29999924  37.31999969  56.02000427
C    18.96999931  36.93000031  55.68999863
C    14.78000069  36.22000122  54.92000198
C    14.09000015  36.68999863  56.06999969
C    12.71999931  36.91999817  56.11000061
C    22.60999870  37.99000168  55.19000244
H    23.31467628  37.31379700  55.67402267
H    18.05999947  37.65999985  57.54000092
H    17.10000038  35.61000061  53.16999817
H    19.47000122  36.02999878  52.45999908
H    21.53000069  36.93999863  52.81999969
H    20.50000000  37.79000092  56.97999954
H    12.28999996  37.27000046  57.04000092
H    22.98999977  38.29000092  54.20999908
H    22.43000031  38.87000275  55.81999969
S    11.46000004  35.45999908  52.61000061
C     8.78999996  35.47000122  53.43999863
C    10.10000038  35.82999802  53.68999863
C    10.47000027  36.47999954  54.91000366
C     9.48000050  36.65999985  55.84999847
C     8.13000011  36.27999878  55.68000031
C     7.09000015  36.36000061  56.65999985
C     5.84000015  35.88000107  56.31999969
C     5.51000023  35.36000061  55.04000092
C     6.48000002  35.25000000  54.08000183
C     7.79999971  35.65999985  54.43000031
C    11.92000008  36.51000214  55.02999878
C    12.56999969  35.91999817  53.92000198
C    13.96000004  35.84000015  53.85000229
C     4.09999990  34.93999863  54.66999817
H     3.72853327  35.53291702  53.83419800
H     8.52999973  35.00000000  52.50000000
H     9.76000023  37.06000137  56.81999969
H     7.27999973  36.65999985  57.68000031
H     5.07999992  35.79999924  57.08000183
H     6.19999981  34.99000168  53.06000137
H    14.42999935  35.45000076  52.95000076
H     3.45000005  35.09999847  55.54000092
H     4.13000011  33.86000061  54.47999954
S    11.46999931  33.34000015  50.01999664
C     8.82000065  32.79000092  50.65000153
C    10.15999985  32.59000015  50.93999863
C    10.72999954  32.06999969  52.14000320
C     9.81999969  31.48999977  53.01000214
C     8.45000076  31.53000069  52.70000076
C     7.53000021  31.05999947  53.68000031
C     6.19000006  30.89999962  53.40999985
C     5.64000034  31.60000038  52.29999924
C     6.48000002  32.30999756  51.47999573
C     7.90000010  32.20999908  51.55000305
C    12.17000008  32.23999786  52.28000259
C    12.75000000  32.90000153  51.17000198
C    14.06000042  33.34000015  51.13999939
C     4.13999987  31.73000145  52.21000290
H     3.75540161  31.90805435  51.20577240
H     8.51000023  33.31999969  49.75999832
H    10.11999989  31.21999931  54.02000046
H     7.95000029  30.78000069  54.64000320
H     5.55999994  30.38999939  54.13000107
H     6.05999994  32.99000168  50.73999786
H    14.42999935  33.81000137  50.22999573
H     3.81000018  30.71000099  52.45999908
H     3.71000004  32.47000122  52.90000153
S    15.69000053  31.81999969  54.43999863
C    18.20999908  32.21999741  53.54000092
C    16.87999916  32.47999954  53.30999756
C    16.40999985  33.11000061  52.11000061
C    17.35999870  33.65000153  51.25999832
C    18.72999954  33.54000092  51.60999680
C    19.71999931  34.10000229  50.76000214
C    21.07000160  34.11000061  51.00999832
C    21.53000069  33.44000244  52.18000031
C    20.62999916  32.79000092  53.00000000
C    19.22000122  32.86999893  52.77999878
C    14.96000099  32.95999908  52.14000320
C    14.44000053  32.23999786  53.25000000
C    13.09999943  31.87000084  53.26000214
C    22.96999931  33.01000214  52.25999832
H    23.43974495  33.45839310  53.13543320
H    18.52000046  31.65999985  54.41999817
H    17.09000015  34.29000092  50.43000031
H    19.13999939  34.34000015  49.86999893
H    21.70000076  34.50000000  50.21999741
H    20.86000061  31.98999786  53.68999863
H    12.76000023  31.37000084  54.15999985
H    23.52000046  33.23999786  51.33999634
H    23.05999947  31.91999817  52.30999756
