96

S    14.81999969  36.93999863  57.51999664
C    17.52000046  36.93000031  56.86999893
C    16.22999954  36.56999969  56.52000046
C    15.92000008  36.00000000  55.24000168
C    16.94000053  35.84000015  54.31000137
C    18.27000046  36.12999725  54.68000031
C    19.32999992  36.02999878  53.74000168
C    20.59999847  36.44000244  54.08000183
C    20.95999908  36.93000031  55.37000275
C    19.95000076  36.88999939  56.30000305
C    18.59000015  36.61000061  55.98999786
C    14.47999954  35.88999939  55.07999802
C    13.76999950  36.34999847  56.22000122
C    12.43000031  36.68999863  56.14999771
C    22.27000046  37.65999985  55.52999878
H    23.05589867  37.00862503  55.91232681
H    17.75000000  37.37999725  57.83000183
H    16.72999954  35.65000153  53.26000214
H    19.05999947  35.84999847  52.70000076
H    21.28999901  36.58000183  53.25000000
H    20.09000015  37.21999741  57.32999802
H    12.02000046  37.21999741  57.00000000
H    22.56000137  38.08000183  54.55999756
H    22.06000137  38.54999924  56.12999725
S    11.31000042  35.61000061  52.54000092
C     8.56000042  35.66999817  53.06000137
C     9.84000015  35.95999908  53.47999954
C    10.26000023  36.32999802  54.79000092
C     9.22000027  36.34999847  55.70000076
C     7.88000011  36.11000061  55.31999969
C     6.86999989  36.25999832  56.30000305
C     5.56999969  35.94000244  55.97999954
C     5.21000004  35.36000061  54.72999954
C     6.15999985  35.27000046  53.74000168
C     7.48000050  35.73999786  53.97999573
C    11.71000004  36.34000015  55.00000000
C    12.42000008  35.75000000  53.92000198
C    13.78000069  35.51000214  53.93000031
C     3.74000025  35.09999847  54.51000214
H     3.27160168  35.71743011  53.74353027
H     8.34999943  35.28000259  52.06999969
H     9.48999977  36.54000092  56.73999786
H     7.27999973  36.48999786  57.28000259
H     4.81999969  36.02000046  56.76000214
H     5.97000027  35.00999832  52.70000076
H    14.30999947  35.20000076  53.02999878
H     3.24000001  35.13000107  55.47999954
H     3.63000011  34.05999756  54.16999817
S    15.00000000  37.22999954  51.45999908
C    17.76000023  37.26000214  50.97999954
C    16.47999954  37.14999771  50.48999786
C    16.10000038  36.88999939  49.13000107
C    17.15999985  36.70000076  48.26000214
C    18.50000000  36.88999939  48.68999863
C    19.55999947  36.79999924  47.74000168
C    20.88000107  36.98999786  48.08000183
C    21.19999886  37.33000183  49.41999817
C    20.20000076  37.43000031  50.35999680
C    18.82999992  37.20000076  50.05000305
C    14.65999985  36.88000107  48.89999771
C    13.92000008  37.21999741  50.06000137
C    12.53000069  37.31999969  50.08999634
C    22.57999802  37.80999756  49.81999969
H    23.12879753  37.08302307  50.41868591
H    17.81999969  37.66999817  51.97999954
H    16.98999977  36.29000092  47.27000427
H    19.34000015  36.55999756  46.70000076
H    21.68999863  37.09000015  47.36999893
H    20.50000000  37.83000183  51.32999802
H    11.98999977  37.56999969  51.00000000
H    23.19999886  38.06999969  48.95000076
H    22.34000015  38.77999878  50.27999878
S    11.46999931  36.15000153  46.46999741
C     8.84000015  35.72000122  47.31999969
C    10.06000042  36.31000137  47.52999878
C    10.34999943  36.88999939  48.81000137
C     9.35999966  37.06999969  49.75999832
C     8.03999996  36.60000229  49.52999878
C     7.00999975  36.86000061  50.47999954
C     5.73000002  36.44000244  50.18000031
C     5.45000029  35.75999832  48.95999908
C     6.47000027  35.51000214  48.08000183
C     7.82000017  35.91999817  48.29000092
C    11.78999996  37.06000137  48.94000244
C    12.53000069  36.67000198  47.78999710
C    13.90999985  36.51000214  47.77999878
C     4.07999992  35.22000122  48.63999939
H     3.59646320  35.73198318  47.80803299
H     8.67000008  35.13999939  46.42000198
H     9.59999943  37.56000137  50.70000076
H     7.26000023  37.52000046  51.30000305
H     4.82999992  36.45999908  50.79000092
H     6.23000050  35.02999878  47.12999725
H    14.34999943  35.98999786  46.93000031
H     3.52999973  35.40000153  49.56999969
H     4.15000010  34.13000107  48.48999786
