96

S    14.88000011  36.84999847  57.41000366
C    17.64999962  36.93000031  56.93000031
C    16.36999893  36.77000046  56.45999908
C    16.06999969  36.38000107  55.11000061
C    17.17000008  36.19999695  54.29000092
C    18.50000000  36.45999908  54.69999695
C    19.55999947  36.38999939  53.75000000
C    20.86000061  36.63999939  54.15000153
C    21.14999962  37.04000092  55.47999954
C    20.13000107  37.09000015  56.39999771
C    18.77000046  36.83000183  56.05999756
C    14.65000057  36.15999985  54.89999771
C    13.83999920  36.56999969  56.00000000
C    12.46000099  36.72000122  55.97999954
C    22.59000015  37.37999725  55.79000092
H    22.93916893  36.90969467  56.70923615
H    17.86999893  37.30999756  57.91999817
H    16.98999977  35.97999954  53.25000000
H    19.50000000  36.17000198  52.69000244
H    21.61999893  36.55999756  53.36999893
H    20.29999924  37.29000092  57.44999695
H    11.97999954  37.36000061  56.72000122
H    23.13999939  37.06999969  54.88999939
H    22.73999977  38.45999908  55.90000153
S    11.50000000  35.45999908  52.36999893
C     8.76000023  35.33000183  52.95999908
C    10.03000069  35.72000122  53.33000183
C    10.31000042  36.36000061  54.58000183
C     9.26000023  36.70000076  55.41999817
C     7.96999979  36.18000031  55.15999603
C     6.86999989  36.50000000  56.00000000
C     5.58000040  36.15999985  55.65999985
C     5.33999968  35.45999908  54.45000076
C     6.38999987  35.15000153  53.61000061
C     7.73000002  35.50000000  53.92000198
C    11.73999977  36.34999847  54.84000397
C    12.51999950  35.88000107  53.75999832
C    13.90999985  35.86000061  53.75000000
C     4.00000000  34.90000153  54.03999710
H     3.43180895  35.58893204  53.41498947
H     8.55000019  34.73999786  52.06999969
H     9.46000004  37.27000046  56.31999969
H     7.13999987  36.93000031  56.95999908
H     4.74000025  36.34000015  56.31999969
H     6.19999981  34.68000031  52.63999939
H    14.42999935  35.52000046  52.85999680
H     3.51000023  34.71999741  55.00999832
H     4.09999990  33.88000107  53.64999771
S    11.79999924  33.55999756  49.61000061
C     9.11000061  32.93000031  50.15999603
C    10.44000053  32.79999924  50.45999908
C    10.88999939  32.14999771  51.65000153
C     9.92000008  31.71999931  52.54000092
C     8.53999996  31.73000145  52.23999786
C     7.53999996  31.28000069  53.13999939
C     6.21999979  31.42999840  52.77000046
C     5.82000017  31.97999954  51.52999878
C     6.76999998  32.38999939  50.61999893
C     8.14000034  32.27999878  50.97000122
C    12.31999969  32.30999756  51.90999985
C    12.94000053  33.04999924  50.86999893
C    14.27999973  33.43000031  50.87999725
C     4.39000034  32.44999695  51.38000107
H     3.94391179  32.11012268  50.44533920
H     8.76000023  33.59000015  49.36999893
H    10.14000034  31.51000023  53.57999802
H     7.82999992  31.04999924  54.16999817
H     5.40000010  31.21999931  53.44999695
H     6.37000036  33.01000214  49.81999969
H    14.63999939  33.86000061  49.94999695
H     3.73000002  32.25000000  52.22999954
H     4.44999981  33.54000092  51.25000000
S    15.53999996  31.77000046  54.27999878
C    18.22999954  32.40000153  53.69999695
C    16.88999939  32.55000305  53.43000031
C    16.45000076  33.27000046  52.27000427
C    17.42000008  33.77000046  51.43000031
C    18.81000137  33.74000168  51.68000031
C    19.84000015  34.09000015  50.76000214
C    21.15999985  33.79000092  50.94999695
C    21.57999992  33.25000000  52.19999695
C    20.59999847  32.90999985  53.09999847
C    19.19999886  33.02999878  52.87000275
C    15.01999950  33.13000107  52.02999878
C    14.40999985  32.34000015  53.02999878
C    13.09999943  31.90000153  53.00000000
C    23.03999901  32.99000168  52.44999695
H    23.25363350  33.16802597  53.50392532
H    18.51000023  31.77999878  54.54999924
H    17.07999992  34.18000031  50.47999954
H    19.47999954  34.63000107  49.87999725
H    21.87999916  34.06999969  50.19000244
H    20.86000061  32.34000015  53.99000168
H    12.68000031  31.28999901  53.80000305
H    23.61000061  33.70999908  51.84000015
H    23.22000122  31.94999886  52.14000320
