96

S    14.47000027  36.91999817  57.43000031
C    17.17000008  36.90999985  56.81000137
C    15.90000057  36.48999786  56.47999573
C    15.59999943  36.01000214  55.15999603
C    16.61999893  35.94000244  54.22999954
C    17.94999886  36.29000092  54.55999756
C    19.04000092  36.15000153  53.66000366
C    20.29000092  36.54999924  54.08000183
C    20.53999901  37.30999756  55.26000214
C    19.52999878  37.27999878  56.18999863
C    18.23999977  36.77000046  55.89000320
C    14.15999985  36.05999756  54.93999863
C    13.43000031  36.59000015  56.03000259
C    12.05999947  36.79999924  56.00999832
C    21.91999817  37.86999893  55.51000214
H    22.52511597  37.25064468  56.17206955
H    17.35999870  37.43000031  57.74000168
H    16.46000099  35.49000168  53.26000214
H    18.75000000  35.94000244  52.63000107
H    21.14999962  36.54999924  53.40999985
H    19.81999969  37.65000153  57.16999817
H    11.51999950  37.23999786  56.84999847
H    22.50000000  38.00000000  54.59000015
H    21.84999847  38.87000275  55.94999695
S    10.93999958  35.86000061  52.34000397
C     8.30999947  35.43999863  53.13999939
C     9.55999947  35.91999817  53.44999695
C     9.90999985  36.27000046  54.79999924
C     8.89999962  36.29000092  55.73999786
C     7.57000017  35.90999985  55.47000122
C     6.48000002  35.88000107  56.39999771
C     5.19000006  35.61000061  56.02000427
C     4.94000006  35.20000076  54.68000031
C     5.95000029  35.18000031  53.75000000
C     7.28999996  35.47000122  54.13000107
C    11.36000061  36.45000076  54.85000229
C    12.06999969  36.02999878  53.69999695
C    13.45000076  35.84000015  53.75000000
C     3.58999991  34.76000214  54.15000153
H     3.20535183  35.42957306  53.38070297
H     8.14000034  35.16999817  52.09999847
H     9.15999985  36.36000061  56.79000092
H     6.74000025  36.24000168  57.38999939
H     4.44000006  35.72000122  56.79000092
H     5.65999985  35.04000092  52.70999908
H    14.02999973  35.54999924  52.88000107
H     2.84999990  34.68000031  54.94999695
H     3.74000025  33.75999832  53.70999908
S    11.92000008  33.93000031  49.65999985
C     9.35000038  33.04000092  50.10000229
C    10.67000008  32.95999908  50.47000122
C    11.13000011  32.47999954  51.73999786
C    10.15999985  31.94999886  52.57999802
C     8.78000069  32.11000061  52.28000259
C     7.76999998  31.64999962  53.16999817
C     6.43000031  31.70000076  52.87000275
C     6.05000019  32.23999786  51.62000275
C     6.96000004  32.77000046  50.72999954
C     8.34999943  32.72000122  51.04999924
C    12.55000019  32.72999954  51.90000153
C    13.14000034  33.50000000  50.86000061
C    14.51000023  33.75000000  50.83000183
C     4.55999994  32.27999878  51.37000275
H     4.29792404  31.81251144  50.42086029
H     9.11000061  33.59000015  49.20000076
H    10.32999992  31.34000015  53.46000290
H     8.05000019  31.19999886  54.12000275
H     5.61999989  31.52000046  53.57999802
H     6.70000029  33.22999954  49.78000259
H    14.98999977  34.22000122  49.97000122
H     4.01999998  31.83000183  52.21000290
H     4.13000011  33.27999878  51.26999664
S    15.77000046  32.18000031  54.33000183
C    18.45000076  32.50000000  53.70999908
C    17.13999939  32.69000244  53.33000183
C    16.70999908  33.29000092  52.09999847
C    17.73999977  33.77999878  51.31999969
C    19.11000061  33.62999725  51.65999985
C    20.17000008  34.04999924  50.79999924
C    21.47000122  33.84999847  51.18999863
C    21.83000183  33.22999954  52.41000366
C    20.85000038  32.77000046  53.26000214
C    19.48999977  32.95000076  52.87000275
C    15.26999950  33.25999832  51.90000153
C    14.67000008  32.56000137  52.97999954
C    13.31999969  32.25000000  52.97000122
C    23.28000069  33.25999832  52.84999847
H    23.51537514  34.02318573  53.59178543
H    18.60999870  31.98999786  54.65999985
H    17.32999992  34.29999924  50.45999908
H    19.95000076  34.57999802  49.87999725
H    22.27000046  34.41999817  50.72000122
H    21.09000015  32.19000244  54.15000153
H    12.86999893  31.63999939  53.75000000
H    23.97000122  33.22000122  51.98999786
H    23.45000076  32.36000061  53.44999695
