96

S    15.00000000  37.43999863  57.35000229
C    17.71000099  37.33000183  56.70000076
C    16.39999962  37.09999847  56.31999969
C    16.10999870  36.56999969  55.02999878
C    17.13000107  36.40999985  54.10999680
C    18.46999931  36.72999954  54.45000076
C    19.57999992  36.51000214  53.59000397
C    20.86000061  36.65999985  54.06999969
C    21.11000061  37.19000244  55.35999680
C    20.07999802  37.61000061  56.18000031
C    18.77000046  37.21999741  55.77000046
C    14.67000008  36.50000000  54.85000229
C    13.96000004  36.97000122  55.98999786
C    12.56999969  36.97000122  56.04000092
C    22.52000046  37.55000305  55.77999878
H    22.98233986  36.88849640  56.51263428
H    17.98999977  37.72999954  57.67000198
H    16.90000153  35.96999741  53.15000153
H    19.51000023  36.17000198  52.56000137
H    21.75000000  36.47999954  53.47000122
H    20.28000069  38.06000137  57.14000320
H    12.10999966  37.34999847  56.95000076
H    23.15000153  37.59999847  54.88999939
H    22.52000046  38.58000183  56.12999725
S    11.40999985  35.81000137  52.43999863
C     8.67000008  35.84000015  53.15000153
C     9.96999931  36.18999863  53.40999985
C    10.36000061  36.63000107  54.72000122
C     9.42000008  36.98999786  55.66999817
C     8.05999947  36.72000122  55.38999939
C     7.11999989  36.72999954  56.45000076
C     5.86000013  36.19999695  56.25000000
C     5.45000029  35.66999817  55.00000000
C     6.38999987  35.52999878  53.99000168
C     7.69999981  36.05999756  54.15999985
C    11.78999996  36.54999924  54.95999908
C    12.50000000  36.15000153  53.79000092
C    13.89000034  36.11999893  53.75000000
C     4.03999996  35.15999985  54.80999756
H     3.55646324  35.67198181  53.97803116
H     8.40999985  35.42000198  52.18000031
H     9.61000061  37.09999847  56.72999954
H     7.26999998  37.09000015  57.47000122
H     5.13999987  36.18999863  57.05999756
H     6.15999985  34.90000153  53.13000107
H    14.28999996  35.94000244  52.76000214
H     3.45000005  35.29000092  55.72000122
H     4.01999998  34.09000015  54.56999969
S    15.34999943  37.72999954  51.42000198
C    18.05999947  37.77000046  50.77999878
C    16.79000092  37.37999725  50.44000244
C    16.46999931  36.83000183  49.15000153
C    17.50000000  36.48999786  48.29000092
C    18.84000015  36.83000183  48.61999893
C    19.85000038  36.63999939  47.63000107
C    21.12999916  37.00999832  47.95999908
C    21.42999840  37.70000076  49.16999817
C    20.42000008  38.00000000  50.06000137
C    19.09000015  37.56000137  49.82999802
C    15.03999901  36.67000198  48.97999573
C    14.30999947  37.16999817  50.08999634
C    12.96000004  37.47000122  50.02999878
C    22.86999893  38.06000137  49.45000076
H    23.30433464  37.73958969  50.39699173
H    18.20999908  38.34000015  51.69000244
H    17.28000069  35.98999786  47.35000229
H    19.64999962  36.09000015  46.72000122
H    21.91999817  36.88999939  47.22000122
H    20.55000114  38.54000092  50.98999786
H    12.50000000  37.88999939  50.91999817
H    23.55999947  37.69000244  48.68000031
H    22.88000107  39.15000153  49.47999954
S    11.77000046  35.84999847  46.65999985
C     9.04999924  35.98999786  47.30999756
C    10.36000061  36.25999832  47.64999771
C    10.77999973  36.95000076  48.82999802
C     9.80000019  37.47000122  49.65000153
C     8.47000027  36.98999786  49.47999954
C     7.46000004  37.19000244  50.45999908
C     6.14000034  36.93000031  50.14999771
C     5.73999977  36.29000092  48.95000076
C     6.70000029  36.04999924  47.98999786
C     8.06999969  36.36000061  48.25000000
C    12.23000050  37.04999924  48.89999771
C    12.94999981  36.45999908  47.83000183
C    14.32000065  36.24000168  47.84999847
C     4.32000017  35.79000092  48.80000305
H     3.79950094  36.39606094  48.05846786
H     8.80999947  35.59000015  46.32999802
H    10.11000061  37.84000015  50.61999893
H     7.77999973  37.66999817  51.38000107
H     5.38000011  37.18000031  50.89000320
H     6.48999977  35.45999908  47.09999847
H    14.94999981  35.70999908  47.14000320
H     3.91999984  35.79999924  49.81999969
H     4.32000017  34.77000046  48.40000153
