96

S    14.75000000  36.95999908  57.36000061
C    17.46999931  37.02000046  56.65999985
C    16.18000031  36.67000198  56.33999634
C    15.85000038  36.27000046  55.00999832
C    16.87000084  36.25999832  54.06999969
C    18.20000076  36.65999985  54.34999847
C    19.25000000  36.58000183  53.40000153
C    20.55000114  36.83000183  53.77999878
C    20.84000015  37.40000153  55.05000305
C    19.79999924  37.59000015  55.93999863
C    18.51000023  37.04999924  55.70000076
C    14.40999985  36.27000046  54.79000092
C    13.69999981  36.63000107  55.96000290
C    12.30999947  36.75000000  56.04000092
C    22.26000023  37.84000015  55.28999710
H    22.63829422  37.24044037  56.11796188
H    17.65999985  37.30999756  57.69000244
H    16.65999985  35.75999832  53.13000107
H    19.01000023  36.11000061  52.44999695
H    21.35999870  36.60000229  53.09999847
H    19.93999863  38.01000214  56.93999863
H    11.85999966  37.04000092  56.97999954
H    22.86999893  37.66999817  54.38999939
H    22.27000046  38.94000244  55.38000107
S    11.11999989  36.01000214  52.34000397
C     8.52000046  35.40999985  53.25000000
C     9.80000019  35.84000015  53.52000427
C    10.15999985  36.40000153  54.79000092
C     9.13000011  36.48999786  55.70000076
C     7.77999973  36.15999985  55.44000244
C     6.69000053  36.34000015  56.33999634
C     5.42999983  35.84000015  56.09000397
C     5.13999987  35.30999756  54.79999924
C     6.14000034  35.13999939  53.87000275
C     7.46999979  35.50000000  54.20000076
C    11.59999943  36.61999893  54.85000229
C    12.28999996  36.36000061  53.62999725
C    13.66000080  36.12999725  53.61999893
C     3.71000004  34.94999695  54.45999908
H     3.20280600  35.63578415  53.78135681
H     8.27999973  35.04000092  52.25999832
H     9.39000034  36.93000031  56.65999985
H     6.78999996  36.83000183  57.30999756
H     4.55999994  35.97999954  56.72000122
H     5.80999947  34.99000168  52.84000015
H    14.04999924  35.79999924  52.65999603
H     3.12000012  34.72999954  55.35999680
H     3.68000007  33.95000076  54.01000214
S    11.57999992  33.84000015  49.69999695
C     8.94999981  33.27999878  50.31999969
C    10.26999950  33.16999817  50.68999863
C    10.75000000  32.59000015  51.90999985
C     9.81000042  32.14999771  52.81999969
C     8.43000031  32.20999908  52.54000092
C     7.37999964  31.71999931  53.36999893
C     6.05999994  31.71999931  52.97000122
C     5.65000010  32.22999954  51.70999908
C     6.65999985  32.68000031  50.89000320
C     8.02999973  32.73999786  51.25999832
C    12.18999958  32.76000214  52.00000000
C    12.81000042  33.45000076  50.91999817
C    14.17000008  33.72000122  50.87999725
C     4.19999981  32.29000092  51.30000305
H     3.95150661  31.49482346  50.59712219
H     8.52999973  33.74000168  49.43000031
H     9.92999935  31.70999908  53.81000137
H     7.50000000  31.35000038  54.38000107
H     5.40999985  31.47000122  53.80000305
H     6.46000004  33.06999969  49.88999939
H    14.63000107  34.26000214  50.06999969
H     3.54999995  32.15999985  52.16999817
H     4.09999990  33.31000137  50.90999985
S    15.48999977  32.02000046  54.31000137
C    18.15999985  32.56000137  53.56999969
C    16.80999947  32.69000244  53.34000015
C    16.38000107  33.27000046  52.09999847
C    17.35000038  33.79000092  51.25999832
C    18.73999977  33.79000092  51.51000214
C    19.79999924  34.27999878  50.70000076
C    21.12999916  34.20000076  51.04000092
C    21.51000023  33.51000214  52.22999954
C    20.52999878  33.06000137  53.09000015
C    19.14999962  33.13999939  52.72999573
C    14.93000031  33.27999878  51.97000122
C    14.35999966  32.56000137  53.04999924
C    13.01000023  32.27000046  53.02999878
C    22.89999962  32.99000168  52.50999832
H    23.42895508  33.39028931  53.37491226
H    18.44000053  32.07999802  54.50000000
H    17.00000000  34.31000137  50.37000275
H    19.54000092  34.64999771  49.72000122
H    21.84000015  34.41999817  50.25000000
H    20.78000069  32.29999924  53.81999969
H    12.53999901  31.71999931  53.83999634
H    23.46999931  33.04999924  51.56999969
H    22.76000023  31.90000153  52.63000107
