96

S    15.15999985  37.50000000  57.43000031
C    17.80999947  37.73999786  56.77000046
C    16.56999969  37.29999924  56.38000107
C    16.18999863  36.75000000  55.11000061
C    17.21999931  36.60000229  54.20000076
C    18.53000069  37.04999924  54.51000214
C    19.52000046  36.81999969  53.50999832
C    20.82999992  37.11000061  53.82999802
C    21.19999886  37.70999908  55.06000137
C    20.20999908  37.86999893  56.00999832
C    18.82999992  37.59000015  55.79999924
C    14.75000000  36.68000031  54.93999863
C    14.06000042  36.97999954  56.13999939
C    12.68000031  37.11000061  56.19999695
C    22.63999939  37.93999863  55.44000244
H    22.98062515  37.35100174  56.29156494
H    18.06999969  38.13000107  57.76000214
H    17.06999969  36.38000107  53.15000153
H    19.23999977  36.40000153  52.55000305
H    21.57999992  36.63999939  53.18999863
H    20.56999969  38.25000000  56.95999908
H    12.13000107  37.40999985  57.09000015
H    23.28000069  37.76000214  54.55999756
H    22.77000046  39.00000000  55.70999908
S    11.51000023  36.08000183  52.56000137
C     8.78000069  36.09999847  53.29000092
C    10.08999920  36.34999847  53.59000397
C    10.50000000  36.70999908  54.91000366
C     9.50000000  36.93000031  55.84999847
C     8.13000011  36.72999954  55.56000137
C     7.09999990  36.63999939  56.52999878
C     5.79999971  36.25999832  56.25000000
C     5.47999954  36.04000092  54.88999939
C     6.38999987  36.20999908  53.87000275
C     7.75000000  36.44000244  54.20000076
C    11.94000053  36.83000183  55.04000092
C    12.64999962  36.48999786  53.86000061
C    14.02999973  36.40000153  53.75999832
C     4.09999990  35.56000137  54.51000214
H     3.64475203  36.10771942  53.68486404
H     8.52999973  35.65000153  52.32999802
H     9.80000019  37.26000214  56.84000015
H     7.34000015  36.79999924  57.56999969
H     5.07999992  36.12999725  57.04999924
H     6.34000015  35.70000076  52.90000153
H    14.50000000  36.04999924  52.84999847
H     3.38999987  35.70999908  55.33000183
H     4.00000000  34.47999954  54.29999924
S    12.30000019  34.04999924  49.78000259
C     9.63000011  33.47999954  50.30000305
C    10.93999958  33.38999939  50.70999908
C    11.39000034  32.68000031  51.86999893
C    10.44999981  32.06999969  52.69000244
C     9.09000015  32.14999771  52.31999969
C     8.15999985  31.71999931  53.30999756
C     6.81999969  31.90000153  53.04999924
C     6.38000011  32.57999802  51.86999893
C     7.26999998  33.08000183  50.94999695
C     8.67000008  32.86999893  51.14999771
C    12.82999992  32.76000214  52.09000015
C    13.42000008  33.54000092  51.05999756
C    14.77000046  33.84999847  51.00999832
C     4.92000008  32.86000061  51.63999939
H     4.55811739  32.50521469  50.67497635
H     9.35000038  34.13000107  49.47000122
H    10.62000084  31.73000145  53.69999695
H     8.39999962  31.31999969  54.29000092
H     6.11000013  31.45000076  53.74000168
H     6.94999981  33.75999832  50.17000198
H    15.29999924  34.45999908  50.27999878
H     4.38000011  32.45999908  52.50999832
H     4.80999994  33.95000076  51.63999939
S    16.10999870  32.13999939  54.34999847
C    18.79999924  32.79000092  53.72000122
C    17.45000076  32.86999893  53.44999695
C    17.00000000  33.54999924  52.27000427
C    17.86999893  34.05999756  51.32999802
C    19.22999954  34.11000061  51.69000244
C    20.19000053  34.59000015  50.76000214
C    21.54000092  34.36000061  50.93000031
C    22.00000000  33.77999878  52.14000320
C    21.11999893  33.22999954  53.02999878
C    19.71999931  33.34999847  52.81000137
C    15.55999947  33.39999771  52.08000183
C    14.93999958  32.65000153  53.11000061
C    13.57999992  32.38999939  53.20999908
C    23.46999931  33.47999954  52.35000229
H    23.76143265  33.37337494  53.39489365
H    19.15999985  32.20000076  54.55999756
H    17.40999985  34.47000122  50.43000031
H    19.85999870  34.93999863  49.78000259
H    22.13999939  34.50999832  50.04000092
H    21.44000053  32.65000153  53.89999771
H    13.07000065  31.98999786  54.08000183
H    23.95999908  34.34999847  51.91999817
H    23.75000000  32.63000107  51.70999908
