96

S    15.19000053  37.40000153  57.22999954
C    17.89999962  37.66999817  56.53999710
C    16.61999893  37.27000046  56.19999695
C    16.25000000  36.72000122  54.93000031
C    17.29999924  36.50000000  54.06000137
C    18.63999939  36.88000107  54.31999969
C    19.70000076  36.58000183  53.41999817
C    20.95999908  36.93999863  53.81000137
C    21.30000114  37.43000031  55.10000229
C    20.27000046  37.76000214  55.96000290
C    18.92000008  37.56000137  55.56000137
C    14.82999992  36.50000000  54.72999954
C    14.13000011  36.95000076  55.87999725
C    12.75000000  37.04000092  55.94999695
C    22.70000076  37.92000198  55.40000153
H    23.22869492  37.30557251  56.12874222
H    18.22999954  38.04000092  57.50000000
H    17.01000023  36.01000214  53.13000107
H    19.47999954  36.18999863  52.43000031
H    21.80000114  36.72000122  53.15000153
H    20.30999947  38.25000000  56.93000031
H    12.27000046  37.40000153  56.86000061
H    23.21000099  37.85000229  54.43000031
H    22.85000038  39.00000000  55.56000137
S    11.61000061  35.68999863  52.39999771
C     8.93000031  35.68999863  53.02000046
C    10.21000004  35.93000031  53.46000290
C    10.55999947  36.40000153  54.77000427
C     9.47000027  36.63000107  55.58000183
C     8.13000011  36.38999939  55.19000244
C     7.02000046  36.61000061  56.04999924
C     5.73000002  36.24000168  55.72999954
C     5.46999979  35.68000031  54.45999908
C     6.47000027  35.63999939  53.50999832
C     7.82000017  35.94000244  53.86000061
C    12.01000023  36.53000259  54.87999725
C    12.71999931  36.18000031  53.69999695
C    14.09999943  36.04999924  53.61999893
C     4.07999992  35.22000122  54.09000015
H     3.60814738  35.82769012  53.31787872
H     8.71999931  35.35000229  52.01000214
H     9.53999996  36.88999939  56.63999939
H     7.21000004  37.04999924  57.02999878
H     4.90000010  36.36000061  56.42000198
H     6.38999987  35.26000214  52.50000000
H    14.68999958  35.86000061  52.74000168
H     3.38000011  35.45000076  54.89999771
H     3.98000002  34.13000107  54.06999969
S    11.94000053  33.81000137  49.66999817
C     9.28999996  33.27999878  50.38000107
C    10.62999916  33.00000000  50.54000092
C    11.11999989  32.30999756  51.69000244
C    10.22999954  31.73000145  52.56999969
C     8.85000038  32.00999832  52.39999771
C     7.86000013  31.65999985  53.36999893
C     6.50000000  31.81999969  53.18000031
C     6.03999996  32.50999832  52.02000046
C     6.94000006  32.95999908  51.07999802
C     8.32999992  32.76000214  51.29000092
C    12.53999901  32.57999802  51.93000031
C    13.14000034  33.36000061  50.90000153
C    14.45000076  33.81999969  50.90000153
C     4.56999969  32.75000000  51.79999924
H     4.12879992  32.27321625  50.92471695
H     8.93000031  33.95999908  49.61999893
H    10.65000057  31.14999962  53.37999725
H     8.10999966  31.11000061  54.26000214
H     5.75999975  31.57999992  53.93000031
H     6.65000010  33.52000046  50.19000244
H    14.85000038  34.48999786  50.13000107
H     4.07000017  32.36999893  52.70000076
H     4.46999979  33.84000015  51.72000122
S    15.90999985  32.25000000  54.23999786
C    18.53000069  32.92000198  53.56999969
C    17.20000076  32.92000198  53.22000122
C    16.70999908  33.48999786  52.01000214
C    17.60000038  34.06999969  51.12999725
C    18.97999954  34.08000183  51.44000244
C    19.92000008  34.54999924  50.47000122
C    21.27000046  34.41999817  50.63000107
C    21.71999931  33.72999954  51.79000092
C    20.86999893  33.31000137  52.78999710
C    19.45999908  33.48999786  52.67000198
C    15.26999950  33.29000092  51.90000153
C    14.70000076  32.62000275  53.01000214
C    13.32999992  32.36000061  53.04999924
C    23.22000122  33.72000122  51.97999954
H    23.51283073  33.72714233  53.02990341
H    18.94000053  32.40999985  54.43999863
H    17.23999977  34.52000046  50.20000076
H    19.48999977  34.84000015  49.51000214
H    21.90999985  34.70999908  49.80999756
H    21.27000046  32.84000015  53.68000031
H    12.89999962  31.86000061  53.92000198
H    23.68999863  34.50999832  51.37000275
H    23.62999916  32.81999969  51.51000214
