96

S    15.07999992  37.22999954  57.34000397
C    17.76000023  37.40000153  56.63999939
C    16.50000000  36.97000122  56.30000305
C    16.13999939  36.37000275  55.05000305
C    17.18000031  36.13999939  54.16999817
C    18.52000046  36.45000076  54.51000214
C    19.47000122  36.37000275  53.44999695
C    20.75000000  36.79999924  53.72000122
C    21.11000061  37.36000061  54.98000336
C    20.17000008  37.52000046  55.97000122
C    18.81999969  37.11999893  55.75000000
C    14.70000076  36.34999847  54.87999725
C    13.97999954  36.72999954  56.04000092
C    12.58999920  36.77000046  56.06999969
C    22.50999832  37.86000061  55.24000168
H    22.99548149  37.36737823  56.08245468
H    17.90999985  37.88999939  57.60000229
H    16.93000031  35.90999985  53.13999939
H    19.14999962  35.91999817  52.51999664
H    21.55999947  36.61999893  53.02000046
H    20.48999977  38.13000107  56.81000137
H    12.02000046  37.04999924  56.95000076
H    23.15999985  37.75000000  54.36000061
H    22.43999863  38.90999985  55.54999924
S    11.49000072  35.96999741  52.30999756
C     8.85000038  35.59999847  53.06000137
C    10.10000038  36.02000046  53.41999817
C    10.40999985  36.41999817  54.75999832
C     9.35000038  36.72000122  55.59000015
C     8.01000023  36.40999985  55.27000046
C     6.89000034  36.60000229  56.12999725
C     5.65999985  36.13999939  55.70999908
C     5.40999985  35.54999924  54.43999863
C     6.48000002  35.40999985  53.57999802
C     7.77999973  35.81000137  53.97999573
C    11.85999966  36.40999985  54.93000031
C    12.56000042  36.22999954  53.69999695
C    13.94999981  36.22000122  53.69999695
C     3.97000027  35.23999786  54.08000183
H     3.57666373  35.96945953  53.37199402
H     8.80999947  35.09999847  52.09000015
H     9.64999962  37.04999924  56.58000183
H     7.11000013  36.81000137  57.16999817
H     4.84000015  36.25000000  56.40999603
H     6.26999950  34.97999954  52.61000061
H    14.47000027  35.84999847  52.83000183
H     3.30999994  35.22999954  54.94999695
H     4.03999996  34.24000168  53.62999725
S    11.84000015  33.82999802  49.64000320
C     9.26000023  32.95999908  50.17000198
C    10.55999947  33.06000137  50.59999847
C    11.00000000  32.59999847  51.88000107
C     9.98999977  32.18000031  52.72999573
C     8.60999966  32.14999771  52.42000198
C     7.60999966  31.68000031  53.30999756
C     6.28000021  31.75000000  52.97999954
C     5.95000029  32.27999878  51.70000076
C     6.88000011  32.57999802  50.72999954
C     8.26000023  32.55000305  51.07999802
C    12.43000031  32.84000015  52.02000046
C    13.02000046  33.54999924  50.93000031
C    14.37000084  33.88999939  50.87999725
C     4.51999998  32.70000076  51.45000076
H     4.12180328  32.26625061  50.53272247
H     9.01000023  33.31999969  49.16999817
H    10.24000072  31.96000099  53.75999832
H     7.86000013  31.09000015  54.19000244
H     5.49000025  31.38000107  53.61999893
H     6.57999992  33.08000183  49.80999756
H    14.82999992  34.22999954  49.95999908
H     3.86999989  32.44999695  52.29000092
H     4.44000006  33.79000092  51.33999634
S    15.85999966  32.26000214  54.23999786
C    18.54999924  32.47999954  53.25000000
C    17.20999908  32.78000259  53.20000076
C    16.64999962  33.44000244  52.05999756
C    17.53999901  33.77999878  51.05999756
C    18.95000076  33.65999985  51.14999771
C    19.89999962  34.18999863  50.22999573
C    21.25999832  34.17000198  50.45999908
C    21.70000076  33.31999969  51.51000214
C    20.85000038  32.59000015  52.29999924
C    19.45000076  32.86000061  52.22999954
C    15.21000004  33.45999908  51.90999985
C    14.67000008  32.72999954  53.01000214
C    13.30000019  32.54000092  53.08000183
C    23.18000031  33.18000031  51.77999878
H    23.48575211  33.35776520  52.81102371
H    18.89999962  32.00000000  54.16999817
H    17.11000061  34.33000183  50.21999741
H    19.42000008  34.61000061  49.34999847
H    21.96000099  34.84000015  49.97000122
H    21.17000198  32.04999924  53.18000031
H    12.98999977  31.94999886  53.93000031
H    23.81000137  33.82999802  51.16000366
H    23.43000031  32.13999939  51.51000214
