96

S    15.34999943  37.29999924  57.43000031
C    17.94999886  37.30999756  56.53999710
C    16.67000008  36.86000061  56.32999802
C    16.25000000  36.32999802  55.06000137
C    17.23999977  36.34000015  54.09000015
C    18.60999870  36.65999985  54.29000092
C    19.62000084  36.54999924  53.29000092
C    20.94000053  36.76000214  53.62999725
C    21.35000038  37.34999847  54.85000229
C    20.35000038  37.52999878  55.77999878
C    18.97999954  37.16999817  55.58000183
C    14.80000019  36.45000076  55.00999832
C    14.14999962  36.93999863  56.17000198
C    12.79999924  37.29000092  56.18999863
C    22.78000069  37.70000076  55.19000244
H    23.23572540  37.05913925  55.94479370
H    18.09999847  37.84000015  57.48000336
H    16.95000076  36.09000015  53.08000183
H    19.26000023  36.01000214  52.42000198
H    21.65999985  36.31999969  52.95000076
H    20.68000031  37.79999924  56.77000046
H    12.48999977  37.95999908  56.97999954
H    23.36999893  37.79000092  54.26000214
H    22.78000069  38.72000122  55.61000061
S    11.51999950  36.22999954  52.62000275
C     8.90999985  35.94000244  53.37999725
C    10.15999985  36.40000153  53.74000168
C    10.52000046  36.90999985  55.01999664
C     9.48000050  37.04000092  55.91999817
C     8.15999985  36.63000107  55.63000107
C     7.04999971  36.77000046  56.52000046
C     5.75000000  36.44000244  56.23000336
C     5.51999998  35.81000137  54.98000336
C     6.51999998  35.75000000  54.03999710
C     7.86999989  36.09000015  54.33000183
C    11.97999954  36.88000107  55.13000107
C    12.64000034  36.40000153  53.97999573
C    14.01000023  36.18999863  53.88999939
C     4.13999987  35.29000092  54.64000320
H     3.61446834  35.88654709  53.89431763
H     8.85000038  35.47999954  52.38999939
H     9.63000011  37.36000061  56.95000076
H     7.27999973  37.31999969  57.42000198
H     4.99000025  36.63999939  56.97999954
H     6.30000019  35.35000229  53.04999924
H    14.48999977  35.81999969  52.97999954
H     3.60000014  35.35000229  55.59000015
H     4.17000008  34.20999908  54.43000031
S    15.55999947  38.18000031  51.18999863
C    18.22999954  37.95000076  50.45000076
C    16.90999985  37.69000244  50.15999603
C    16.46000099  37.04000092  48.96999741
C    17.46000099  36.61999893  48.11999893
C    18.84000015  36.90000153  48.30999756
C    19.80999947  36.77000046  47.28000259
C    21.12999916  37.04999924  47.52999878
C    21.54000092  37.63000107  48.75999832
C    20.59999847  37.88000107  49.72999954
C    19.23999977  37.52999878  49.54000092
C    15.00000000  36.97999954  48.94000244
C    14.34999943  37.68000031  49.99000168
C    12.97000027  37.63999939  50.12000275
C    22.93999863  38.15999985  49.00000000
H    23.48985481  37.53873444  49.70695877
H    18.55999947  38.51000214  51.31999969
H    17.21999931  36.09000015  47.19999695
H    19.37000084  36.36000061  46.37000275
H    21.87999916  36.70000076  46.83000183
H    20.86000061  38.55999756  50.54000092
H    12.43999958  37.99000168  51.00000000
H    23.45000076  38.38000107  48.04999924
H    22.76000023  39.13000107  49.47999954
S    11.72000027  35.98999786  46.72999954
C     9.02999973  35.98999786  47.50000000
C    10.34000015  36.25000000  47.81999969
C    10.76000023  36.83000183  49.06999969
C     9.73999977  37.15999985  49.93999863
C     8.38000011  36.86000061  49.71000290
C     7.30999994  37.22999954  50.56999969
C     6.01000023  36.81000137  50.38000107
C     5.66999960  36.22000122  49.13999939
C     6.65000010  35.96999741  48.20999908
C     8.02999973  36.18999863  48.47999954
C    12.20000076  37.04999924  49.10999680
C    12.86000061  36.63999939  47.91999817
C    14.23999977  36.51000214  47.85999680
C     4.26000023  35.75999832  48.86000061
H     3.77655673  36.33586502  48.07085037
H     8.82999992  35.72000122  46.46999741
H     9.94999981  37.80999756  50.79000092
H     7.59000015  37.70999908  51.50000000
H     5.14999962  36.88999939  51.04000092
H     6.30000019  35.65999985  47.22999954
H    14.68000031  36.15000153  46.93999863
H     3.65000010  35.84999847  49.77000427
H     4.13999987  34.70000076  48.62999725
