96

S    14.88000011  37.34000015  57.45999908
C    17.53000069  37.56999969  56.70000076
C    16.23999977  37.27000046  56.31999969
C    15.88000107  36.95000076  54.97000122
C    16.90999985  36.79999924  54.06000137
C    18.25000000  37.06999969  54.41999817
C    19.34000015  36.68000031  53.60000229
C    20.65000153  36.86999893  54.00000000
C    20.95000076  37.43999863  55.26000214
C    19.93999863  37.70999908  56.14999771
C    18.59000015  37.47999954  55.76000214
C    14.42999935  36.84000015  54.88999939
C    13.75000000  37.13000107  56.10000229
C    12.38000011  37.33000183  56.14999771
C    22.39999962  37.72999954  55.56999969
H    22.88113785  36.89508820  56.07943726
H    17.70000076  37.79999924  57.74000168
H    16.81999969  36.44000244  53.04000092
H    19.18000031  36.22000122  52.63000107
H    21.44000053  36.59000015  53.29999924
H    20.22000122  38.01000214  57.15999985
H    11.92000008  37.50999832  57.11999893
H    22.93000031  38.18000031  54.72999954
H    22.36999893  38.52000046  56.32999802
S    11.18999958  35.81999969  52.69000244
C     8.51000023  35.73999786  53.40999985
C     9.78999996  36.11000061  53.74000168
C    10.17000008  36.65999985  55.00999832
C     9.19000053  36.77000046  55.97999954
C     7.83999968  36.44000244  55.66999817
C     6.76000023  36.72000122  56.56000137
C     5.45000029  36.38000107  56.31000137
C     5.13999987  35.81000137  55.05000305
C     6.15000010  35.52999878  54.15999985
C     7.49000025  35.95999908  54.36999893
C    11.59000015  36.97000122  55.06000137
C    12.28000069  36.54999924  53.88999939
C    13.66000080  36.47999954  53.76999664
C     3.72000003  35.43000031  54.69999695
H     3.34967661  36.00685120  53.85252762
H     8.21000004  35.52999878  52.37999725
H     9.42000008  37.26000214  56.91999817
H     7.05999947  37.15999985  57.50000000
H     4.76000023  36.58000183  57.12999725
H     5.84000015  35.11000061  53.20000076
H    14.15999985  36.25999832  52.83000183
H     2.99000001  35.59000015  55.50000000
H     3.61000013  34.38999939  54.36000061
S    15.44999981  38.38000107  51.31000137
C    18.17000008  38.36000061  50.70999908
C    16.90000153  37.92000198  50.38999939
C    16.57999992  37.34999847  49.12000275
C    17.63000107  37.00000000  48.27999878
C    18.95000076  37.34000015  48.64999771
C    19.96999931  36.97000122  47.71999741
C    21.25999832  37.23999786  48.13000107
C    21.55999947  37.95000076  49.33000183
C    20.59000015  38.48999786  50.13000107
C    19.26000023  38.06000137  49.85000229
C    15.14999962  37.13999939  48.99000168
C    14.40999985  37.56000137  50.13000107
C    13.02999973  37.43000031  50.15999603
C    22.98999977  38.22999954  49.71000290
H    23.34545708  37.57595444  50.50622940
H    18.45000076  38.94000244  51.58000183
H    17.50000000  36.47999954  47.32999802
H    19.82999992  36.52000046  46.75000000
H    22.06000137  36.79000092  47.55000305
H    20.85000038  39.13999939  50.96000290
H    12.53999901  37.68000031  51.10000229
H    23.59000015  38.16999817  48.79000092
H    22.90999985  39.27000046  50.06000137
S    11.95000076  36.19999695  46.62000275
C     9.28999996  35.77000046  47.39999771
C    10.52000046  36.32999802  47.67000198
C    10.81999969  36.86000061  48.95999908
C     9.75000000  37.16999817  49.78000259
C     8.43999958  36.72000122  49.47999954
C     7.40999985  36.90999985  50.44000244
C     6.14000034  36.40999985  50.24000168
C     5.84999990  35.89999771  48.95000076
C     6.84999990  35.58000183  48.06000137
C     8.19999981  35.95000076  48.27999878
C    12.27000046  37.00999832  49.06000137
C    13.04999924  36.65999985  47.93000031
C    14.42999935  36.52000046  47.95999908
C     4.44999981  35.36999893  48.72000122
H     3.98991585  36.02119827  47.97678757
H     9.11999989  35.36999893  46.40999603
H     9.89000034  37.63000107  50.75000000
H     7.59999990  37.42000198  51.38000107
H     5.42000008  36.37000275  51.04000092
H     6.51000023  35.07999802  47.15000153
H    14.92000008  35.94000244  47.18000031
H     3.81999993  35.28000259  49.61000061
H     4.59000015  34.36000061  48.33000183
