96

S    14.85000038  37.15999985  57.52999878
C    17.61000061  37.06000137  56.91999817
C    16.29999924  36.79999924  56.58000183
C    15.90000057  36.17000198  55.35999680
C    16.87000084  35.84999847  54.43000031
C    18.20999908  36.19999695  54.73999786
C    19.26000023  36.04000092  53.79000092
C    20.56999969  36.24000168  54.13999939
C    20.98999977  36.93000031  55.31000137
C    19.97999954  37.16999817  56.20999908
C    18.63000107  36.79000092  55.97999954
C    14.46000004  36.05999756  55.15999603
C    13.73999977  36.63999939  56.24000168
C    12.35999966  36.70999908  56.24000168
C    22.39999962  37.40999985  55.56999969
H    22.89176750  36.71154785  56.24707413
H    17.92000008  37.61000061  57.80000305
H    16.69000053  35.38000107  53.47000122
H    18.90999985  35.59999847  52.85999680
H    21.34000015  36.09999847  53.37999725
H    20.28000069  37.66999817  57.12999725
H    11.85999966  36.93000031  57.18999863
H    22.88999939  37.47999954  54.59000015
H    22.34999847  38.41999817  56.00000000
S    11.36999989  35.34000015  52.65999603
C     8.64000034  35.29000092  53.30999756
C     9.92999935  35.66999817  53.62999725
C    10.17000008  36.27000046  54.91000366
C     9.17000008  36.36000061  55.86000061
C     7.85000038  35.95999908  55.54000092
C     6.72999954  36.19999695  56.39999771
C     5.46000004  35.72000122  56.19999695
C     5.28999996  34.97999954  55.00000000
C     6.24000025  35.00999832  54.00000000
C     7.57999992  35.40000153  54.23999786
C    11.61000061  36.40999985  55.10000229
C    12.36999989  35.94000244  54.00000000
C    13.73000050  35.65999985  54.03999710
C     3.89999986  34.45999908  54.72999954
H     3.50165796  35.05039978  53.90486145
H     8.43999958  34.79999924  52.36000061
H     9.26999950  36.79999924  56.84999847
H     6.98000002  36.91999817  57.16999817
H     4.78999996  35.79999924  57.04999924
H     6.05999994  34.59999847  53.01000214
H    14.22000027  35.29999924  53.13999939
H     3.25000000  34.40999985  55.61000061
H     4.01999998  33.39999771  54.47000122
S    15.29000092  37.34999847  51.70000076
C    18.01000023  37.50000000  50.97000122
C    16.72999954  37.09000015  50.68999863
C    16.42000008  36.68000031  49.34999847
C    17.42000008  36.51000214  48.40999985
C    18.76000023  36.81000137  48.74000168
C    19.88000107  36.54000092  47.90000153
C    21.18000031  36.68000031  48.31999969
C    21.48999977  37.14999771  49.62999725
C    20.42000008  37.33000183  50.47999954
C    19.06999969  37.31999969  50.05000305
C    14.96999931  36.59000015  49.19000244
C    14.22000027  36.98999786  50.33000183
C    12.82999992  37.07999802  50.38000107
C    22.92000008  37.52000046  49.92000198
H    23.49248314  36.76861572  50.46385956
H    18.22999954  37.57999802  52.02999878
H    17.27000046  36.00000000  47.45999908
H    19.79999924  36.13999939  46.90000153
H    21.94999886  36.56999969  47.56999969
H    20.62000084  37.66999817  51.50000000
H    12.28999996  37.40000153  51.26999664
H    23.36000061  37.99000168  49.02999878
H    22.73999977  38.36999893  50.59999847
S    11.77000046  35.84000015  46.73999786
C     9.06000042  35.66999817  47.44999695
C    10.36000061  35.96999741  47.81000137
C    10.70000076  36.47999954  49.09999847
C     9.67000008  36.77999878  49.97000122
C     8.34000015  36.41999817  49.65000153
C     7.26999998  36.63000107  50.56999969
C     5.98999977  36.15999985  50.38999939
C     5.65000010  35.70999908  49.08000183
C     6.63000011  35.50000000  48.13999939
C     8.00000000  35.81000137  48.39000320
C    12.13000107  36.68999863  49.22999954
C    12.84000015  36.31999969  48.06000137
C    14.22999954  36.27999878  48.04999924
C     4.26000023  35.26000214  48.72000122
H     3.89024448  35.87862778  47.90227127
H     8.85000038  35.22999954  46.49000168
H     9.94999981  37.15999985  50.94999695
H     7.53000021  37.06999969  51.52999878
H     5.33999968  35.89999771  51.22000122
H     6.51999998  34.93999863  47.21000290
H    14.88999939  35.88000107  47.28000259
H     3.56999993  35.38000107  49.56999969
H     4.38000011  34.22000122  48.39000320
