96

S    14.63000107  37.36999893  57.28000259
C    17.27000046  37.59999847  56.65000153
C    16.05999947  37.06999969  56.26999664
C    15.72999954  36.50000000  55.00000000
C    16.81999969  36.17000198  54.20999908
C    18.11000061  36.63000107  54.56999969
C    19.19000053  36.52000046  53.64999771
C    20.50000000  36.84999847  53.90999603
C    20.75000000  37.44999695  55.17000198
C    19.71999931  37.70000076  56.04999924
C    18.37000084  37.30999756  55.80999756
C    14.28999996  36.50000000  54.78000259
C    13.56999969  36.88000107  55.94999695
C    12.18999958  36.93999863  56.11000061
C    22.17000008  37.86000061  55.52000046
H    22.61240959  37.33909988  56.36914062
H    17.30999947  37.95999908  57.67000198
H    16.62999916  36.09000015  53.13999939
H    19.01000023  36.09000015  52.67000198
H    21.31999969  36.67000198  53.22000122
H    19.96000099  38.31000137  56.91999817
H    11.78999996  37.29999924  57.04999924
H    22.86000061  37.52999878  54.72999954
H    22.27999878  38.95000076  55.65999985
S    11.00999928  36.04999924  52.44999695
C     8.30999947  35.70000076  53.20999908
C     9.61000061  36.00000000  53.54999924
C    10.01999950  36.37000275  54.86999893
C     9.06000042  36.37000275  55.86999893
C     7.69999981  36.18999863  55.56000137
C     6.61999989  36.25000000  56.49000168
C     5.33999968  35.82999802  56.19999695
C     4.96000004  35.65999985  54.85000229
C     5.93999958  35.72999954  53.88999939
C     7.31999969  35.86999893  54.20000076
C    11.44999981  36.60000229  54.97000122
C    12.17000008  36.31999969  53.76999664
C    13.53999996  36.15000153  53.64999771
C     3.53999996  35.28000259  54.50000000
H     3.15419650  35.80869293  53.62836838
H     8.09000015  35.35000229  52.19999695
H     9.38000011  36.55999756  56.88999939
H     6.91999960  36.58000183  57.48000336
H     4.63999987  35.82999802  57.02999878
H     5.68000031  35.65999985  52.83000183
H    13.99000072  35.81999969  52.71999741
H     2.84999990  35.40000153  55.34999847
H     3.55999994  34.18999863  54.41999817
S    11.21999931  33.72000122  49.77000427
C     8.60999966  33.23999786  50.63000107
C     9.96000004  33.00000000  50.79000092
C    10.43000031  32.43000031  52.01000214
C     9.51000023  31.96000099  52.94000244
C     8.11999989  32.13000107  52.76000214
C     7.11999989  31.57999992  53.61999893
C     5.78000021  31.65999985  53.30999756
C     5.32000017  32.34000015  52.15000153
C     6.26999950  33.02999878  51.42000198
C     7.67000008  32.90999985  51.63000107
C    11.85999966  32.63000107  52.12999725
C    12.42000008  33.27999878  51.00000000
C    13.76000023  33.63999939  50.97000122
C     3.84999990  32.57999802  51.93000031
H     3.58806729  32.38885880  50.88934708
H     8.23000050  33.70999908  49.72999954
H     9.81000042  31.52000046  53.88000107
H     7.42000008  30.94000053  54.43999863
H     5.07999992  31.09000015  53.90999603
H     5.92999983  33.59999847  50.56000137
H    14.14000034  34.09000015  50.06000137
H     3.19000006  32.00000000  52.58999634
H     3.70000005  33.63999939  52.15000153
S    15.29000092  31.94000053  54.23999786
C    17.86000061  32.36000061  53.29999924
C    16.51000023  32.50000000  53.09000015
C    16.09000015  33.27000046  51.95000076
C    16.95000076  33.90000153  51.06999969
C    18.34000015  33.75000000  51.30000305
C    19.40000153  34.36000061  50.56999969
C    20.72999954  34.18000031  50.86999893
C    21.11000061  33.48999786  52.04999924
C    20.15000153  32.88999939  52.84000015
C    18.78000069  33.06000137  52.48000336
C    14.63999939  33.22000122  51.97000122
C    14.07999992  32.50999832  53.06000137
C    12.74000072  32.16999817  53.13000107
C    22.55000114  33.09999847  52.30999756
H    23.04154587  33.57730103  53.15774155
H    18.30999947  31.97999954  54.20999908
H    16.45000076  34.31000137  50.20000076
H    19.01000023  34.83000183  49.66999817
H    21.54000092  34.48999786  50.21999741
H    20.45000076  32.21999741  53.63999939
H    12.35999966  31.68000031  54.02000046
H    23.06999969  33.39999771  51.38999939
H    22.69000053  32.00999832  52.21000290
