96

S    15.06000042  37.19000244  57.31999969
C    17.72999954  37.34999847  56.70999908
C    16.47999954  36.95000076  56.30000305
C    16.14999962  36.45999908  54.99000168
C    17.17000008  36.34000015  54.06000137
C    18.42000008  36.90999985  54.36999893
C    19.45999908  36.88000107  53.39000320
C    20.69999886  37.37999725  53.69999695
C    20.97999954  37.90000153  54.99000168
C    20.00000000  37.95999908  55.96000290
C    18.71999931  37.40000153  55.68999863
C    14.70999908  36.38999939  54.82999802
C    13.97999954  36.86999893  55.93999863
C    12.60000038  37.04000092  56.03000259
C    22.34000015  38.38999939  55.44000244
H    22.83177948  37.83407593  56.23825073
H    17.86000061  37.90000153  57.63999939
H    16.94000053  35.93000031  53.08000183
H    19.31999969  36.29000092  52.49000168
H    21.51000023  37.13000107  53.02000046
H    20.17999840  38.34000015  56.95999908
H    12.13000107  37.31999969  56.95999908
H    23.02999878  38.20000076  54.59999847
H    22.29999924  39.47000122  55.63000107
S    11.46999931  35.72000122  52.45999908
C     8.76000023  35.73999786  53.16999817
C    10.05000019  36.09000015  53.44999695
C    10.43000031  36.59000015  54.73999786
C     9.43000031  36.77999878  55.68000031
C     8.06999969  36.47000122  55.41999817
C     6.96000004  36.74000168  56.26999664
C     5.69000006  36.31000137  55.97000122
C     5.38999987  35.70999908  54.72000122
C     6.40999985  35.52999878  53.81000137
C     7.73000002  35.95000076  54.13000107
C    11.87000084  36.67000198  54.88999939
C    12.57999992  36.20999908  53.75000000
C    13.96000004  36.05999756  53.68999863
C     3.97000027  35.33000183  54.36999893
H     3.50184917  36.06060028  53.71033096
H     8.53999996  35.38000107  52.15999985
H     9.72000027  37.20999908  56.63999939
H     7.07000017  37.15999985  57.25999832
H     4.85000038  36.50000000  56.63000107
H     6.21000004  34.81999969  53.01000214
H    14.51000023  35.65999985  52.84000015
H     3.47000003  35.09000015  55.31999969
H     3.86000013  34.34999847  53.89999771
S    11.69999981  33.81999969  49.54999924
C     9.03999996  33.29999924  50.22999573
C    10.36999893  33.16999817  50.52999878
C    10.90000057  32.55000305  51.70999908
C     9.98999977  32.04000092  52.62000275
C     8.61999989  32.18000031  52.31999969
C     7.63999987  31.42999840  53.04000092
C     6.30999994  31.47999954  52.68000031
C     5.79999971  32.23999786  51.59000015
C     6.69000053  33.01000214  50.89000320
C     8.07999992  32.84000015  51.16000366
C    12.35999966  32.50000000  51.76000214
C    12.93000031  33.20000076  50.65999985
C    14.25000000  33.61999893  50.66999817
C     4.30000019  32.37999725  51.44000244
H     3.94442129  32.49378586  50.41593552
H     8.73999977  33.84000015  49.33000183
H    10.34000015  31.56999969  53.54000092
H     7.96999979  30.93000031  53.95000076
H     5.63000011  30.95999908  53.34000015
H     6.44999981  33.62999725  50.02999878
H    14.57999992  34.29000092  49.87999725
H     3.78999996  31.51000023  51.86000061
H     3.91000009  33.27000046  51.95000076
S    15.72999954  32.11000061  54.02000046
C    18.39999962  32.86000061  53.40000153
C    17.06999969  32.77000046  53.04999924
C    16.55999947  33.40999985  51.86999893
C    17.48999977  33.94000244  51.00999832
C    18.89000130  33.86000061  51.23000336
C    19.89999962  34.36000061  50.37000275
C    21.14999962  34.70000076  50.83000183
C    21.57999992  34.31000137  52.11999893
C    20.71000099  33.59000015  52.91999817
C    19.36000061  33.41999817  52.51999664
C    15.11999989  33.29000092  51.72000122
C    14.55000019  32.49000168  52.75000000
C    13.23999977  32.02999878  52.74000168
C    22.95000076  34.64999771  52.65999603
H    23.32090950  34.06510162  53.50167465
H    18.79999924  32.57999802  54.36999893
H    17.23999977  34.34000015  50.02999878
H    19.54000092  34.66999817  49.38999939
H    21.70999908  35.36000061  50.17000198
H    21.02000046  33.20000076  53.88999939
H    12.82999992  31.63000107  53.66000366
H    23.06999969  35.72999954  52.83000183
H    23.55999947  34.45999908  51.77000046
