96

S    15.18000031  37.40999985  57.34000397
C    17.88999939  37.47999954  56.75000000
C    16.61000061  37.23999786  56.30000305
C    16.21000099  36.70000076  55.04000092
C    17.23999977  36.52000046  54.13999939
C    18.57999992  36.77999878  54.52000046
C    19.65999985  36.55999756  53.61999893
C    20.97999954  36.70000076  53.95999908
C    21.28999901  37.11000061  55.28999710
C    20.30999947  37.37999725  56.20999908
C    18.94000053  37.20000076  55.84999847
C    14.78000069  36.45999908  54.87999725
C    14.09999943  36.74000168  56.10000229
C    12.71999931  36.79999924  56.18999863
C    22.72999954  37.50000000  55.54999924
H    23.22213745  36.87947845  56.29890442
H    18.02000046  37.90000153  57.75000000
H    17.13000107  35.88000107  53.27000046
H    19.25000000  36.31000137  52.63999939
H    21.80000114  36.58000183  53.26000214
H    20.51000214  37.70000076  57.22000122
H    12.13999939  37.00999832  57.09000015
H    23.35000038  37.50999832  54.64000320
H    22.73999977  38.55999756  55.86000061
S    11.61000061  35.59999847  52.49000168
C     8.89999962  35.65000153  53.22999954
C    10.21000004  35.90999985  53.54000092
C    10.55999947  36.47000122  54.80999756
C     9.59999943  36.84000015  55.72999954
C     8.25000000  36.47999954  55.48999786
C     7.23000002  36.70000076  56.45999908
C     5.92000008  36.45000076  56.16000366
C     5.58000040  35.84000015  54.93000031
C     6.53999996  35.61000061  53.97999573
C     7.90999985  35.93000031  54.20999908
C    12.00000000  36.47000122  55.02999878
C    12.65999985  36.02999878  53.85000229
C    14.04999924  35.96999741  53.79000092
C     4.11999989  35.56000137  54.61000061
H     3.69269490  36.42173386  54.09723282
H     8.59000015  35.20000076  52.29000092
H     9.85999966  37.23999786  56.70000076
H     7.62000036  37.13999939  57.37999725
H     5.13999987  36.59000015  56.91999817
H     6.25999975  35.52000046  52.93000031
H    14.56999969  35.70000076  52.88000107
H     3.65999985  35.29999924  55.56999969
H     3.94000006  34.68000031  53.99000168
S    11.65999985  33.65000153  49.55999756
C     9.06000042  33.16999817  50.34000015
C    10.39000034  32.88999939  50.54000092
C    10.90999985  32.22999954  51.70000076
C    10.01000023  31.75000000  52.63999939
C     8.63000011  31.91999817  52.42000198
C     7.60999966  31.34000015  53.23999786
C     6.26999950  31.61999893  53.09000015
C     5.78999996  32.45999908  52.05999756
C     6.74000025  32.88999939  51.16000366
C     8.14000034  32.61000061  51.25000000
C    12.35000038  32.43000031  51.76000214
C    12.92000008  33.25000000  50.75000000
C    14.21000004  33.77000046  50.79999924
C     4.32999992  32.79000092  51.84999847
H     3.91038942  32.09301758  51.12457275
H     8.76000023  33.70999908  49.45000076
H    10.39000034  31.09000015  53.41999817
H     7.88999987  30.92000008  54.20000076
H     5.63000011  31.48999977  53.95999908
H     6.54999971  33.58000183  50.34000015
H    14.67000008  34.26000214  49.95999908
H     3.79999995  32.66999817  52.80000305
H     4.19999981  33.80000305  51.45000076
S    15.67000008  32.11999893  54.13999939
C    18.20999908  32.95999908  53.57999802
C    16.87999916  33.04000092  53.22000122
C    16.47999954  33.61999893  51.97000122
C    17.46000099  34.01000214  51.07999802
C    18.82999992  33.86000061  51.40999603
C    19.88000107  34.22000122  50.52000046
C    21.19999886  34.06999969  50.86000061
C    21.56999969  33.59000015  52.15000153
C    20.59999847  33.23999786  53.04999924
C    19.22999954  33.45999908  52.72999573
C    15.06000042  33.31000137  51.81000137
C    14.52000046  32.49000168  52.83000183
C    13.19000053  32.09999847  52.83000183
C    23.03999901  33.31999969  52.36000061
H    23.39611816  33.60489655  53.35000610
H    18.40999985  32.23999786  54.36999893
H    17.23999977  34.20999908  50.04000092
H    19.69000053  34.75000000  49.59000015
H    21.94999886  34.41999817  50.15999603
H    20.81999969  32.80999756  54.02999878
H    12.79000092  31.45999908  53.61999893
H    23.71000099  33.65999985  51.56999969
H    23.15000153  32.21999741  52.36000061
