96

S    14.81999969  37.34000015  57.36000061
C    17.53000069  37.36000061  56.72000122
C    16.25000000  37.00000000  56.36000061
C    15.88999939  36.47000122  55.07999802
C    16.95999908  36.17000198  54.26000214
C    18.30999947  36.40999985  54.64000320
C    19.38999939  36.12999725  53.75000000
C    20.68000031  36.47999954  54.09999847
C    21.00000000  37.13000107  55.31999969
C    19.98999977  37.34999847  56.22000122
C    18.63999939  37.06000137  55.87999725
C    14.45000076  36.45999908  54.88999939
C    13.73000050  36.95999908  56.00999832
C    12.35000038  36.93999863  56.07999802
C    22.43999863  37.55000305  55.54999924
H    22.96005249  36.80197906  56.14841843
H    17.64999962  37.79000092  57.70000076
H    16.76000023  35.70999908  53.29999924
H    19.11000061  35.81999969  52.75000000
H    21.50000000  36.22999954  53.43999863
H    20.17000008  37.95000076  57.09999847
H    11.80999947  37.20999908  56.97999954
H    23.05999947  37.69000244  54.65999985
H    22.44999886  38.54000092  56.02000427
S    11.35000038  35.20000076  52.56000137
C     8.64999962  35.20000076  53.18999863
C     9.92999935  35.52000046  53.57999802
C    10.21999931  36.12999725  54.84000397
C     9.18000031  36.38999939  55.70999908
C     7.83999968  36.18000031  55.31000137
C     6.75000000  36.43000031  56.18000031
C     5.47999954  35.98999786  55.87999725
C     5.18000031  35.52999878  54.58000183
C     6.21000004  35.43000031  53.67000198
C     7.57999992  35.58000183  54.02999878
C    11.64999962  36.36000061  55.00999832
C    12.34000015  35.93000031  53.85000229
C    13.71000099  36.11999893  53.75000000
C     3.75000000  35.15000153  54.25000000
H     3.26426673  35.72859573  53.46425629
H     8.57999992  34.64999771  52.25000000
H     9.28999996  36.77999878  56.72000122
H     6.90000010  36.86000061  57.16999817
H     4.65000010  36.09999847  56.56999969
H     5.89999962  34.99000168  52.71999741
H    14.34000015  36.00000000  52.87000275
H     3.19000006  35.12000275  55.19000244
H     3.61999989  34.11999893  53.89999771
S    12.39999962  33.20000076  49.77000427
C     9.71000004  32.73999786  50.31999969
C    11.02000046  32.61000061  50.70999908
C    11.42000008  32.06000137  51.97000122
C    10.40999985  31.54999924  52.76000214
C     9.04999924  31.67000008  52.37999725
C     8.00000000  31.19999886  53.22000122
C     6.67999983  31.34000015  52.85999680
C     6.28999996  32.11999893  51.75000000
C     7.26999998  32.47000122  50.84999847
C     8.64999962  32.27000046  51.13999939
C    12.81000042  32.38999939  52.28000259
C    13.42000008  33.11000061  51.22000122
C    14.75000000  33.50000000  51.26999664
C     4.86999989  32.55000305  51.43000031
H     4.38498545  32.04359055  50.59548950
H     9.52000046  33.34000015  49.43000031
H    10.67000008  31.04999924  53.68999863
H     8.23999977  30.62000084  54.10999680
H     5.88000011  30.93000031  53.47000122
H     7.05999947  33.13000107  50.00999832
H    15.19000053  33.86000061  50.34000015
H     4.35999966  32.36999893  52.38999939
H     4.84000015  33.62999725  51.25999832
S    16.11999893  31.87000084  54.64000320
C    18.76000023  32.21999741  53.96999741
C    17.45000076  32.40999985  53.60000229
C    17.04000092  33.11000061  52.42000198
C    18.04000092  33.51000214  51.56000137
C    19.40000153  33.45000076  51.93999863
C    20.42000008  33.61000061  50.96000290
C    21.76000214  33.45999908  51.25999832
C    22.11999893  32.97999954  52.55000305
C    21.14999962  32.52999878  53.40000153
C    19.77000046  32.83000183  53.18999863
C    15.59000015  33.08000183  52.30999756
C    14.96999931  32.38999939  53.39000320
C    13.61999989  32.04999924  53.36999893
C    23.59000015  32.68000031  52.80000305
H    24.06048775  33.16474533  53.65543365
H    19.03000069  31.61999893  54.84000397
H    17.86000061  33.90999985  50.56999969
H    20.05000114  33.67000198  49.93999863
H    22.50999832  33.63999939  50.50000000
H    21.32999802  31.94000053  54.29999924
H    13.17999935  31.47000122  54.16999817
H    24.20999908  32.72000122  51.90000153
H    23.59000015  31.63000107  53.11000061
