96

S    14.84000015  36.91999817  57.42000198
C    17.56999969  37.14999771  56.73999786
C    16.28999901  36.76000214  56.40999603
C    16.03000069  36.40000153  55.05000305
C    17.06999969  36.27000046  54.13999939
C    18.35000038  36.79000092  54.41999817
C    19.42000008  36.84999847  53.47999954
C    20.66999817  37.16999817  53.95000076
C    20.86999893  37.69000244  55.26000214
C    19.88999939  37.63000107  56.22000122
C    18.60999870  37.16999817  55.77999878
C    14.57999992  36.32999802  54.89999771
C    13.76999950  36.58000183  56.04000092
C    12.38999939  36.72999954  56.04000092
C    22.23999977  38.23999786  55.58000183
H    22.78124237  37.44950104  56.09988022
H    17.85000038  37.65999985  57.64999771
H    16.77999878  35.86000061  53.16999817
H    19.22999954  36.59000015  52.43999863
H    21.51000023  37.06999969  53.26000214
H    19.98999977  38.04000092  57.22000122
H    11.84999943  36.95000076  56.95000076
H    22.79999924  38.51000214  54.68000031
H    22.09000015  39.17000198  56.13999939
S    11.38000011  35.79000092  52.35000229
C     8.64000034  35.70999908  53.02000046
C     9.92999935  36.06999969  53.34000015
C    10.29000092  36.51000214  54.65999985
C     9.30000019  36.67000198  55.61000061
C     7.96999979  36.31000137  55.27999878
C     6.97000027  36.37000275  56.30000305
C     5.66999960  36.11000061  55.97000122
C     5.33999968  35.58000183  54.68999863
C     6.32000017  35.27000046  53.76999664
C     7.59999990  35.84000015  53.96999741
C    11.72999954  36.55999756  54.80999756
C    12.48000050  36.12999725  53.68999863
C    13.86999989  36.02000046  53.74000168
C     3.91999984  35.18000031  54.38999939
H     3.36549640  35.74872208  53.64355469
H     8.43999958  34.93999863  52.28000259
H     9.46000004  36.75000000  56.68000031
H     7.30999994  36.68000031  57.29000092
H     4.90000010  36.04000092  56.72999954
H     6.26999950  34.68000031  52.85999680
H    14.52999973  35.77000046  52.91999817
H     3.30999994  35.06999969  55.30000305
H     3.94000006  34.15999985  54.00000000
S    11.68000031  33.87000275  49.68000031
C     9.04999924  33.02999878  50.21999741
C    10.39999962  32.95000076  50.48999786
C    10.86999989  32.33000183  51.69000244
C     9.92999935  31.86000061  52.58999634
C     8.55000019  31.90000153  52.28000259
C     7.57999992  31.31999969  53.13999939
C     6.24000025  31.54999924  52.95999908
C     5.78000021  32.21999741  51.79000092
C     6.65999985  32.65999985  50.83000183
C     8.05000019  32.52000046  51.07999802
C    12.30999947  32.52999878  51.86000061
C    12.89000034  33.36000061  50.86999893
C    14.21000004  33.79000092  50.83000183
C     4.30999994  32.50000000  51.56000137
H     3.98991799  31.98075676  50.65665436
H     8.57999992  33.40999985  49.31999969
H    10.29000092  31.38999939  53.50000000
H     7.92000008  30.78000069  54.02999878
H     5.44000053  31.32999802  53.66000366
H     6.44000006  33.27999878  49.97000122
H    14.65000057  34.36999893  50.00999832
H     3.73000002  32.11000061  52.39999771
H     4.15000010  33.58000183  51.65000153
S    15.71000004  32.04000092  54.02999878
C    18.34000015  32.76000214  53.43000031
C    17.00000000  32.85000229  53.13000107
C    16.48999977  33.45000076  51.93000031
C    17.42000008  34.01000214  51.07999802
C    18.77000046  34.08000183  51.49000168
C    19.65999985  34.71999741  50.58000183
C    20.98999977  34.84000015  50.93999863
C    21.54000092  34.00000000  51.93999863
C    20.72000122  33.34999847  52.83000183
C    19.30999947  33.46999741  52.67000198
C    15.03999901  33.29000092  51.83000183
C    14.47000027  32.47999954  52.84999847
C    13.12000084  32.15999985  52.94000244
C    23.02999878  34.17000198  52.14000320
H    23.39273643  33.58677673  52.98638916
H    18.67000008  32.09000015  54.22000122
H    17.15999985  34.34999847  50.07999802
H    19.44000053  35.15000153  49.61000061
H    21.57999992  35.54000092  50.35999680
H    21.21000099  32.83000183  53.64999771
H    12.71000004  31.44000053  53.63999939
H    23.19999886  35.22999954  52.36000061
H    23.64999962  34.01000214  51.24000168
