96

S    14.85000038  37.07999802  57.43000031
C    17.51000023  37.06999969  56.84000015
C    16.26000023  36.70000076  56.40999603
C    15.92000008  36.25000000  55.10000229
C    16.97000122  36.08000183  54.22000122
C    18.30999947  36.36000061  54.61000061
C    19.37999916  36.18999863  53.68999863
C    20.68000031  36.47999954  54.02999878
C    20.86999893  37.19000244  55.24000168
C    19.88999939  37.36000061  56.19999695
C    18.55999947  36.98999786  55.87999725
C    14.47000027  36.25999832  54.93999863
C    13.75000000  36.61999893  56.11000061
C    12.35999966  36.60000229  56.18000031
C    22.27000046  37.65000153  55.59000015
H    22.80557442  36.97160721  56.25411224
H    17.76000023  37.23999786  57.88000107
H    16.80999947  35.79000092  53.18999863
H    19.19000053  35.89999771  52.65999603
H    21.45000076  36.31000137  53.29000092
H    20.06000137  37.73999786  57.21000290
H    11.84000015  36.98999786  57.04999924
H    22.88000107  37.81999969  54.69999695
H    22.17000008  38.62999725  56.09000397
S    11.26000023  35.56999969  52.52999878
C     8.56999969  35.30999756  53.15999985
C     9.85000038  35.58000183  53.59000397
C    10.14999962  36.02000046  54.93000031
C     9.10000038  36.18999863  55.80999756
C     7.77999973  35.84999847  55.43000031
C     6.63000011  35.91999817  56.27999878
C     5.36000013  35.61000061  55.86000061
C     5.12000036  35.15999985  54.52999878
C     6.21000004  34.95999908  53.70999908
C     7.53000021  35.30999756  54.12000275
C    11.57999992  36.18999863  55.08999634
C    12.31999969  35.95999908  53.89999771
C    13.69999981  35.95000076  53.81000137
C     3.70000005  34.83000183  54.13000107
H     3.28726387  35.49180222  53.36857224
H     8.40999985  34.84999847  52.18999863
H     9.40999985  36.60000229  56.77000046
H     6.84999990  36.34000015  57.25999832
H     4.56999969  35.72999954  56.59999847
H     6.02999973  34.77000046  52.65999603
H    14.18000031  35.88999939  52.84000015
H     3.14000010  35.00000000  55.06000137
H     3.52999973  33.79000092  53.82999802
S    15.21999931  37.57999802  51.47999573
C    17.89999962  37.52000046  50.80999756
C    16.61000061  37.16999817  50.47000122
C    16.27000046  36.68000031  49.15999985
C    17.21999931  36.68999863  48.15000153
C    18.53999901  37.09999847  48.44999695
C    19.52000046  37.02000046  47.42000198
C    20.76999855  37.55000305  47.62000275
C    21.11999893  37.97999954  48.93000031
C    20.23999977  37.88000107  49.98000336
C    18.88000107  37.47999954  49.79000092
C    14.81999969  36.59000015  49.03999710
C    14.13000011  37.13999939  50.14999771
C    12.76000023  37.36999893  50.13000107
C    22.50999832  38.45000076  49.27999878
H    22.96950340  37.81376648  50.03641129
H    18.13999939  37.99000168  51.76000214
H    16.86000061  36.29000092  47.21000290
H    19.19999886  36.59000015  46.46999741
H    21.47999954  37.38999939  46.81999969
H    20.43999863  38.29999924  50.96000290
H    12.23999977  37.70999908  51.00999832
H    23.12999916  38.38000107  48.37999725
H    22.44999886  39.47000122  49.65999985
S    11.57999992  36.24000168  46.53999710
C     8.93000031  35.88999939  47.27000427
C    10.19000053  36.30000305  47.63999939
C    10.52999973  36.70000076  48.97999573
C     9.52999973  36.90000153  49.91000366
C     8.21000004  36.54000092  49.55999756
C     7.09000015  36.68000031  50.44000244
C     5.82000017  36.27999878  50.11000061
C     5.53999996  35.82999802  48.79000092
C     6.56000042  35.81000137  47.87000275
C     7.90999985  36.06999969  48.22999954
C    11.96000004  36.95999908  49.06000137
C    12.67000008  36.55999756  47.90000153
C    14.04000092  36.27999878  47.93000031
C     4.13999987  35.36000061  48.46000290
H     3.68427658  36.00085831  47.70520782
H     8.71000004  35.43999863  46.30000305
H     9.71000004  37.27999878  50.90999985
H     7.35000038  37.00000000  51.45000076
H     5.03999996  36.22000122  50.86000061
H     6.40999985  35.63000107  46.81000137
H    14.55999947  36.05999756  47.00000000
H     3.52999973  35.22000122  49.34999847
H     4.30999994  34.36999893  48.02000046
