96

S    14.73999977  37.22999954  57.30999756
C    17.51000023  37.11000061  56.77000046
C    16.21999931  36.83000183  56.39999771
C    15.93000031  36.29000092  55.11000061
C    17.00000000  36.04999924  54.27000046
C    18.35000038  36.32999802  54.59999847
C    19.45000076  36.13999939  53.73000336
C    20.72999954  36.44000244  54.13999939
C    21.00000000  36.86999893  55.45999908
C    19.93999863  37.27999878  56.24000168
C    18.60999870  36.91999817  55.89000320
C    14.48999977  36.15999985  54.88999939
C    13.73000050  36.77999878  55.91999817
C    12.35000038  36.95000076  55.90000153
C    22.42000198  37.27999878  55.80999756
H    22.78139305  36.76979446  56.70285034
H    17.70000076  37.70999908  57.65999603
H    16.76000023  35.77000046  53.25000000
H    19.29999924  35.84000015  52.70000076
H    21.54000092  36.32999802  53.41999817
H    20.03999901  37.99000168  57.04999924
H    11.87999916  37.49000168  56.72000122
H    23.03999901  37.04999924  54.93999863
H    22.40999985  38.36999893  55.98999786
S    11.31000042  35.22999954  52.50999832
C     8.59000015  35.38000107  53.06000137
C     9.88000011  35.65000153  53.46000290
C    10.21000004  36.27999878  54.69999695
C     9.22000027  36.65000153  55.58000183
C     7.92999983  36.11000061  55.34999847
C     6.83000040  36.32999802  56.22000122
C     5.52999973  36.02999878  55.87999725
C     5.19999981  35.51000214  54.59999847
C     6.24000025  35.31999969  53.72000122
C     7.59999990  35.54000092  54.06999969
C    11.65999985  36.43000031  54.79999924
C    12.39999962  35.73999786  53.81000137
C    13.78000069  35.56000137  53.83999634
C     3.77999997  35.13000107  54.26000214
H     3.38814521  35.77834320  53.47629166
H     8.34000015  35.00999832  52.06999969
H     9.30000019  37.27000046  56.46999741
H     7.00999975  36.84000015  57.15999985
H     4.67999983  36.34000015  56.49000168
H     6.07999992  35.05000305  52.68000031
H    14.25000000  35.12000275  52.97000122
H     3.16000009  35.22999954  55.15999603
H     3.84999990  34.11000061  53.85000229
S    11.54000092  33.34000015  49.61999893
C     8.82000065  32.69000244  50.07999802
C    10.14999962  32.59999847  50.44000244
C    10.52999973  32.06000137  51.70999908
C     9.59000015  31.73999977  52.68000031
C     8.21000004  31.84999847  52.36000061
C     7.17000008  31.40999985  53.23999786
C     5.84000015  31.45999908  52.90000153
C     5.49000025  32.20000076  51.73999786
C     6.47000027  32.57999802  50.84999847
C     7.85000038  32.33000183  51.05999756
C    11.96000004  32.06999969  51.95000076
C    12.60000038  32.81999969  50.93999863
C    13.93000031  33.23999786  51.03000259
C     4.11999989  32.73999786  51.37000275
H     3.76985216  32.27551651  50.44818115
H     8.50000000  33.25000000  49.22000122
H     9.85000038  31.15999985  53.55999756
H     7.42000008  30.79000092  54.09999847
H     5.03000021  31.12999916  53.54000092
H     6.12999964  33.06999969  49.93999863
H    14.37999916  34.09000015  50.52999878
H     3.40000010  32.55000305  52.18000031
H     4.21999979  33.81000137  51.12999725
S    15.25000000  31.56999969  54.38000107
C    17.98999977  32.09999847  53.69999695
C    16.63999939  32.21999741  53.47999954
C    16.13000107  32.90999985  52.32999802
C    17.05000114  33.61999893  51.58000183
C    18.45000076  33.39999771  51.65999985
C    19.32999992  33.97999954  50.70999908
C    20.68000031  33.91999817  50.93000031
C    21.19999886  33.20999908  52.04999924
C    20.34000015  32.66999817  52.97999954
C    18.93000031  32.69000244  52.81999969
C    14.70999908  32.75000000  52.08000183
C    14.07999992  32.00000000  53.11000061
C    12.72999954  31.68000031  53.06000137
C    22.70000076  33.04999924  52.15000153
H    23.06817818  33.50313950  53.07044220
H    18.29000092  31.57999992  54.61000061
H    16.72999954  34.31000137  50.80999756
H    18.89000130  34.59000015  49.92000198
H    21.44000053  34.38000107  50.31000137
H    20.72999954  32.13000107  53.83999634
H    12.28000069  31.18999863  53.90999603
H    23.23999786  33.31999969  51.24000168
H    22.98000145  32.00000000  52.23999786
