96

S    14.75000000  37.22999954  57.29000092
C    17.42000008  36.86999893  56.76000214
C    16.13000107  36.63000107  56.35000229
C    15.76000023  36.12999725  55.06000137
C    16.77999878  35.89999771  54.15000153
C    18.12000084  36.19999695  54.47999954
C    19.14999962  36.20999908  53.50000000
C    20.43999863  36.59000015  53.79000092
C    20.76999855  36.98999786  55.11000061
C    19.76000023  37.20000076  56.02000427
C    18.43000031  36.74000168  55.77999878
C    14.32000065  35.97999954  54.95999908
C    13.64999962  36.59000015  56.05999756
C    12.28999996  36.86999893  55.98999786
C    22.13999939  37.43999863  55.56000137
H    22.67094421  36.79578781  56.26084900
H    17.67000008  37.44999695  57.64999771
H    16.65999985  35.56000137  53.11999893
H    18.86999893  35.79999924  52.54000092
H    21.21999931  36.40999985  53.06000137
H    19.97999954  37.66999817  56.97000122
H    11.73999977  37.27999878  56.83000183
H    22.63000107  37.27999878  54.59000015
H    22.25000000  38.50000000  55.79999924
S    11.14999962  35.54999924  52.37999725
C     8.47000027  35.42000198  53.16999817
C     9.77000046  35.77000046  53.47000122
C    10.11000061  36.24000168  54.78000259
C     9.04999924  36.38000107  55.65999985
C     7.69000006  36.09000015  55.38999939
C     6.63999987  36.40000153  56.30000305
C     5.32999992  36.17000198  55.96000290
C     5.05999994  35.51000214  54.73999786
C     6.03999996  35.26000214  53.80000305
C     7.39000034  35.58000183  54.08000183
C    11.54999924  36.36000061  54.91000366
C    12.22000027  35.86000061  53.75999832
C    13.60000038  35.70999908  53.79000092
C     3.63000011  35.26000214  54.31000137
H     3.24480772  35.95191956  53.56101608
H     8.19999981  34.86000061  52.28000259
H     9.35000038  36.84999847  56.59000015
H     6.76000023  36.68000031  57.34000397
H     4.53000021  36.43000031  56.65000153
H     5.79999971  34.86999893  52.81000137
H    14.09000015  35.51000214  52.84000015
H     2.89999986  35.07999802  55.10000229
H     3.74000025  34.25000000  53.88000107
S    15.19000053  37.55000305  51.44000244
C    17.97000122  37.47000122  50.86000061
C    16.65999985  37.27000046  50.48999786
C    16.29999924  36.84999847  49.16999817
C    17.31999969  36.51000214  48.29000092
C    18.65999985  36.84000015  48.60000229
C    19.69000053  36.84999847  47.61000061
C    21.00000000  37.09999847  47.91999817
C    21.38999939  37.56000137  49.20999908
C    20.36999893  37.70000076  50.12000275
C    19.00000000  37.36999893  49.88999939
C    14.86999989  36.65999985  48.97999573
C    14.11999893  36.97000122  50.14999771
C    12.74000072  37.09000015  50.25000000
C    22.76000023  37.99000168  49.66999817
H    23.14543915  37.27622223  50.39804840
H    18.26000023  37.72999954  51.86999893
H    17.07999992  36.09000015  47.31999969
H    19.47999954  36.70000076  46.55000305
H    21.73999977  36.90000153  47.15000153
H    20.48999977  38.00000000  51.16000366
H    12.31999969  37.54000092  51.13999939
H    23.46999931  38.04000092  48.82999802
H    22.59000015  38.98999786  50.08999634
S    11.65999985  36.00000000  46.60999680
C     8.93000031  36.06999969  47.25999832
C    10.22999954  36.32999802  47.61000061
C    10.53999996  36.76000214  48.94000244
C     9.51000023  37.00999832  49.81999969
C     8.17000008  36.70000076  49.45999908
C     7.09999990  36.84999847  50.38999939
C     5.79999971  36.55999756  50.06999969
C     5.50000000  35.97999954  48.81000137
C     6.48999977  35.88000107  47.85999680
C     7.85000038  36.17000198  48.16999817
C    11.97999954  36.81999969  49.09999847
C    12.72999954  36.45000076  47.95000076
C    14.11000061  36.41999817  47.83000183
C     4.05000019  35.61999893  48.54000092
H     3.61128998  36.20730591  47.73333740
H     8.65999985  35.84000015  46.23000336
H     9.64999962  37.13000107  50.89000320
H     7.37999964  37.07999802  51.42000198
H     5.05000019  36.70000076  50.84000015
H     6.21999979  35.65999985  46.83000183
H    14.53999996  36.18000031  46.86000061
H     3.49000001  35.81000137  49.45999908
H     3.81999993  34.56999969  48.34000015
