96

S    14.94999981  37.19000244  57.39999771
C    17.70000076  37.27999878  56.66999817
C    16.39999962  36.90000153  56.42000198
C    15.98000050  36.40000153  55.14999771
C    16.97000122  36.27999878  54.19000244
C    18.34000015  36.54000092  54.41999817
C    19.43000031  36.18999863  53.56999969
C    20.76000023  36.45000076  53.82999802
C    21.05999947  37.09999847  55.06000137
C    20.05000114  37.49000168  55.90999985
C    18.68000031  37.20000076  55.65000153
C    14.53999996  36.47000122  54.93000031
C    13.82999992  36.97000122  56.04999924
C    12.43999958  36.95000076  56.19999695
C    22.47999954  37.56999969  55.31000137
H    22.90826797  37.12746048  56.20935822
H    17.95999908  37.66999817  57.64999771
H    16.70999908  35.72999954  53.29000092
H    19.19000053  35.75999832  52.60000229
H    21.47000122  36.17000198  53.06000137
H    20.31999969  37.80999756  56.90999985
H    12.03999996  37.06999969  57.19999695
H    23.02000046  37.36000061  54.38000107
H    22.36000061  38.65000153  55.45999908
S    11.31000042  35.59000015  52.60000229
C     8.59000015  35.65999985  53.25000000
C     9.89999962  35.91999817  53.61999893
C    10.27999973  36.31999969  54.93999863
C     9.21000004  36.54000092  55.77999878
C     7.83999968  36.27999878  55.50000000
C     6.77999973  36.45000076  56.44000244
C     5.55000019  35.84999847  56.29000092
C     5.32000017  35.23999786  55.02999878
C     6.23000050  35.22999954  53.99000168
C     7.53999996  35.75000000  54.20000076
C    11.72000027  36.47000122  55.11000061
C    12.38999939  36.11999893  53.89999771
C    13.76999950  36.09999847  53.81999969
C     3.93000007  34.68000031  54.82999802
H     3.36900806  35.23389053  54.07727432
H     8.34000015  35.19000244  52.30999756
H     9.44999981  36.81999969  56.79999924
H     7.04999971  36.79000092  57.43000031
H     4.81999969  35.89999771  57.08000183
H     5.92000008  34.88999939  53.01000214
H    14.34999943  35.75999832  52.95999908
H     3.40999985  34.88999939  55.77999878
H     3.91000009  33.59999847  54.68999863
S    15.44999981  37.61000061  51.59999847
C    18.09999847  37.78000259  50.90999985
C    16.86000061  37.27999878  50.58000183
C    16.55999947  36.68000031  49.31999969
C    17.60000038  36.56999969  48.40999985
C    18.89000130  37.07999802  48.68999863
C    19.97999954  36.88000107  47.80000305
C    21.25999832  37.16999817  48.20000076
C    21.59000015  37.69000244  49.47999954
C    20.52000046  37.97999954  50.28999710
C    19.17000008  37.63000107  49.99000168
C    15.11000061  36.61999893  49.20000076
C    14.35999966  37.15999985  50.27000046
C    13.00000000  37.42000198  50.17000198
C    22.98000145  38.15999985  49.84000397
H    23.49828720  37.48551559  50.52158356
H    18.19000053  38.31000137  51.84999847
H    17.45000076  36.06999969  47.44999695
H    19.79999924  36.31000137  46.88999939
H    22.04999924  37.07999802  47.45999908
H    20.65000153  38.51000214  51.23000336
H    12.48000050  37.72999954  51.06999969
H    23.67000198  38.34000015  49.01000214
H    22.81999969  39.11000061  50.34999847
S    11.90999985  35.61000061  46.79999924
C     9.19999981  35.79999924  47.55000305
C    10.52000046  36.15000153  47.76000214
C    10.86999989  37.00999832  48.86000061
C     9.92999935  37.47000122  49.75999832
C     8.61999989  36.93000031  49.69999695
C     7.63000011  37.20999908  50.68000031
C     6.32999992  36.81999969  50.47000122
C     5.96000004  35.91999817  49.43000031
C     6.91999960  35.63999939  48.48999786
C     8.25000000  36.15000153  48.54000092
C    12.31999969  37.07999802  49.00000000
C    13.00000000  36.36000061  47.97999954
C    14.37999916  36.19999695  48.09000015
C     4.53000021  35.43000031  49.38000107
H     4.01038980  35.86419678  48.52584839
H     8.86999989  35.34000015  46.63000107
H    10.22999954  38.04999924  50.61999893
H     7.92999983  37.65000153  51.63000107
H     5.64000034  37.04999924  51.27999878
H     6.69000053  35.02000046  47.63000107
H    14.96000099  35.90999985  47.22000122
H     4.02999973  35.77000046  50.28999710
H     4.55000019  34.34000015  49.40999985
