96

S    14.60999966  37.04000092  57.28000259
C    17.34000015  37.09999847  56.70999908
C    16.05999947  36.84000015  56.26999664
C    15.70000076  36.47999954  54.93999863
C    16.69999886  36.09000015  54.06000137
C    18.04999924  36.27000046  54.43999863
C    19.12999916  36.22999954  53.50999832
C    20.42000008  36.53000259  53.88000107
C    20.72999954  36.97999954  55.19000244
C    19.68000031  37.11999893  56.06999969
C    18.32999992  36.84000015  55.72999954
C    14.25000000  36.40999985  54.77000427
C    13.50000000  36.79999924  55.90999985
C    12.11999989  36.91999817  55.90999985
C    22.15999985  37.36999893  55.51000214
H    22.76498795  36.53013229  55.85163879
H    17.52000046  37.38999939  57.74000168
H    16.44000053  35.79000092  53.04999924
H    18.86999893  36.01000214  52.48000336
H    21.24000168  36.43000031  53.16999817
H    19.93999863  37.62000275  57.00000000
H    11.56999969  37.07999802  56.83000183
H    22.60000038  37.88999939  54.65000153
H    22.11000061  38.04000092  56.38000107
S    11.00999928  35.52000046  52.43000031
C     8.34000015  35.22999954  53.15999985
C     9.57999992  35.75000000  53.46000290
C     9.94999981  36.45999908  54.65000153
C     9.00000000  36.59000015  55.65000153
C     7.68000031  36.13999939  55.37000275
C     6.71999979  36.19999695  56.40999603
C     5.42000008  35.84000015  56.13999939
C     5.05999994  35.19000244  54.93000031
C     6.01000023  35.00999832  53.95000076
C     7.34000015  35.49000168  54.13000107
C    11.39000034  36.61000061  54.75000000
C    12.15000057  36.09999847  53.67000198
C    13.53000069  35.97999954  53.64999771
C     3.60000014  34.92000198  54.66999817
H     3.30086660  35.36869812  53.72274399
H     8.05999947  34.71999741  52.23999786
H     9.35000038  37.00000000  56.59000015
H     6.94000006  36.81000137  57.28000259
H     4.65999985  35.95999908  56.90999985
H     5.75999975  34.65999985  52.95000076
H    14.01999950  35.61000061  52.76000214
H     2.92000008  35.20000076  55.48999786
H     3.54999995  33.82999802  54.59999847
S    11.31999969  33.72000122  49.75000000
C     8.71000004  32.95999908  50.43000031
C    10.06000042  32.88999939  50.68999863
C    10.69000053  32.19000244  51.77999878
C     9.81000042  31.63999939  52.70000076
C     8.40999985  31.70000076  52.52999878
C     7.50999975  31.25000000  53.54999924
C     6.15999985  31.25000000  53.31999969
C     5.63000011  31.73000145  52.09000015
C     6.44000006  32.42000198  51.22000122
C     7.85000038  32.33000183  51.37000275
C    12.10000038  32.47999954  51.95000076
C    12.61999989  33.22999954  50.86000061
C    13.94999981  33.62999725  50.79000092
C     4.13999987  31.94999886  52.02000046
H     3.79798031  32.08538055  50.99394226
H     8.38000011  33.54999924  49.58000183
H    10.25000000  31.09000015  53.53000259
H     7.88999987  30.89999962  54.50000000
H     5.46000004  30.89999962  54.08000183
H     6.11999989  32.97000122  50.34000015
H    14.32999992  34.02000046  49.85000229
H     3.68999982  31.05999947  52.48000336
H     3.93000007  32.88000107  52.56000137
S    15.47999954  32.11000061  54.15000153
C    18.02000046  33.02000046  53.55999756
C    16.70999908  32.90999985  53.15000153
C    16.26000023  33.45000076  51.90999985
C    17.17000008  33.84000015  50.93000031
C    18.54999924  33.80000305  51.23000336
C    19.55999947  34.27999878  50.35999680
C    20.89999962  34.18999863  50.68000031
C    21.25999832  33.61999893  51.93000031
C    20.32999992  33.29999924  52.88999939
C    18.95000076  33.39999771  52.55000305
C    14.81999969  33.25000000  51.81000137
C    14.28999996  32.52000046  52.90000153
C    12.97999954  32.04999924  52.95000076
C    22.70000076  33.77999878  52.35000229
H    23.08347130  33.14088058  53.14535141
H    18.27999878  32.72000122  54.56999969
H    16.87999916  34.15000153  49.93000031
H    19.27999878  34.77000046  49.43000031
H    21.64999962  34.64999771  50.05000305
H    20.65999985  33.04999924  53.89999771
H    12.60000038  31.38000107  53.72000122
H    22.84000015  34.86999893  52.43999863
H    23.31999969  33.43000031  51.52000046
