96

S    14.59000015  37.20999908  57.32999802
C    17.30999947  37.47999954  56.49000168
C    16.01000023  37.06999969  56.27999878
C    15.64000034  36.58000183  54.99000168
C    16.62999916  36.34999847  54.05000305
C    17.98999977  36.58000183  54.36999893
C    19.03000069  36.22000122  53.46000290
C    20.35000038  36.38999939  53.80000305
C    20.73999786  37.00000000  55.01999664
C    19.76000023  37.31999969  55.93999863
C    18.38000107  37.13000107  55.63999939
C    14.21000004  36.43000031  54.81999969
C    13.50000000  36.76000214  56.00000000
C    12.13000107  36.95000076  56.05999756
C    22.18000031  37.36000061  55.27000046
H    22.59113503  36.76456451  56.08518219
H    17.51000023  37.93999863  57.44999695
H    16.31999969  35.93000031  53.09999847
H    18.84000015  36.01000214  52.41000366
H    21.04999924  36.31999969  52.97000122
H    20.03999901  37.80999756  56.86999893
H    11.59999943  37.23999786  56.97000122
H    22.72999954  37.23999786  54.33000183
H    22.36000061  38.41999817  55.47999954
S    10.93000031  35.56000137  52.55000305
C     8.19999981  35.34000015  53.39000320
C     9.52000046  35.66999817  53.61999893
C     9.89999962  36.34000015  54.81999969
C     8.88000011  36.63999939  55.72000122
C     7.53000021  36.27000046  55.52999878
C     6.44000006  36.53000259  56.40999603
C     5.14999962  36.12999725  56.19999695
C     4.86000013  35.40000153  55.00999832
C     5.82000017  35.22000122  54.03999710
C     7.16000032  35.59000015  54.31999969
C    11.32999992  36.55999756  54.98000336
C    12.02000046  36.15000153  53.81000137
C    13.40999985  36.05999756  53.73000336
C     3.42999983  35.13000107  54.61000061
H     3.12537932  35.64006042  53.69613647
H     7.94000053  34.84999847  52.44999695
H     9.22000027  37.04999924  56.66999817
H     6.75000000  37.06000137  57.30999756
H     4.40000010  36.47999954  56.90000153
H     5.72000027  34.90000153  53.00000000
H    13.97999954  35.88000107  52.81999969
H     2.86000013  35.59000015  55.41999817
H     3.17999983  34.06999969  54.52000046
S    15.27999973  37.85000229  51.51000214
C    17.95999908  37.95999908  50.68999863
C    16.68000031  37.52999878  50.45999908
C    16.32999992  36.95000076  49.20000076
C    17.34000015  36.59000015  48.31999969
C    18.68000031  36.97000122  48.54000092
C    19.80999947  36.70999908  47.70999908
C    21.07999992  37.09000015  48.04000092
C    21.28999901  37.93999863  49.15999985
C    20.26000023  38.25000000  50.01999664
C    18.96000099  37.76000214  49.71000290
C    14.89999962  36.68000031  49.12000275
C    14.21000004  37.23999786  50.22999573
C    12.82999992  37.26000214  50.31000137
C    22.69000053  38.36000061  49.52000046
H    23.20631790  37.61735153  50.12826538
H    18.22000122  38.38000107  51.65999985
H    17.13000107  35.98999786  47.43000031
H    19.61000061  36.22999954  46.75000000
H    21.88999939  36.88999939  47.32999802
H    20.40999985  38.84999847  50.90999985
H    12.30000019  37.49000168  51.23000336
H    23.23999786  38.55999756  48.59000397
H    22.72999954  39.34999847  49.98000336
S    11.68000031  36.09999847  46.69000244
C     8.96000004  35.96999741  47.47000122
C    10.26999950  36.22999954  47.77000046
C    10.64000034  36.77999878  49.03999710
C     9.63000011  37.15999985  49.89999771
C     8.27999973  36.81999969  49.65000153
C     7.26999998  37.00999832  50.63000107
C     5.95000029  36.70000076  50.37000275
C     5.59000015  36.13999939  49.12000275
C     6.52999973  36.06999969  48.11999893
C     7.90999985  36.30000305  48.36999893
C    12.09000015  36.77000046  49.22000122
C    12.79000092  36.43000031  48.04000092
C    14.17000008  36.25999832  48.01000214
C     4.13999987  35.81999969  48.81000137
H     3.69758201  36.47649384  48.06074524
H     8.67999935  35.54999924  46.51000214
H     9.77999973  37.78000259  50.77999878
H     7.59000015  37.26000214  51.63999939
H     5.25000000  36.97999954  51.14999771
H     6.17999983  35.65999985  47.16999817
H    14.75000000  35.93000031  47.15999985
H     3.58999991  35.96999741  49.75000000
H     4.15000010  34.76000214  48.50999832
