96

S    14.84000015  37.70999908  57.25000000
C    17.52000046  37.97000122  56.43000031
C    16.23999977  37.56000137  56.16000366
C    15.88000107  36.97000122  54.91000366
C    16.87000084  36.63999939  54.00000000
C    18.15000153  37.21999741  54.18000031
C    19.23999977  36.84999847  53.34999847
C    20.48000145  37.33000183  53.70999908
C    20.89999962  37.79999924  54.98000336
C    19.86999893  38.01000214  55.86999893
C    18.53000069  37.78000259  55.45000076
C    14.44000053  36.77999878  54.79000092
C    13.75000000  37.31999969  55.90999985
C    12.36999989  37.50000000  55.93000031
C    22.34000015  37.97999954  55.38999939
H    22.74719238  37.23704910  56.07579803
H    17.79999924  38.22999954  57.44999695
H    16.67000008  35.84000015  53.29000092
H    19.05999947  36.47000122  52.35000229
H    21.15999985  37.13000107  52.88000107
H    20.06999969  38.38999939  56.86999893
H    11.90000057  37.99000168  56.77999878
H    23.00000000  38.11000061  54.52000046
H    22.52000046  38.95000076  55.86999893
S    11.23999977  36.11000061  52.39999771
C     8.52999973  36.02000046  53.01000214
C     9.80000019  36.40000153  53.39000320
C    10.11999989  36.88999939  54.69999695
C     9.07999992  37.04999924  55.59999847
C     7.76999998  36.74000168  55.18000031
C     6.71000004  36.88000107  56.12999725
C     5.40999985  36.50000000  55.90000153
C     5.15999985  35.84999847  54.65999985
C     6.12999964  35.65999985  53.69999695
C     7.46000004  36.11999893  53.92000198
C    11.56000042  37.00000000  54.89999771
C    12.28999996  36.61000061  53.75000000
C    13.66000080  36.38999939  53.69999695
C     3.70000005  35.58000183  54.38000107
H     3.30261278  36.09802246  53.50716782
H     8.30999947  35.65000153  52.01000214
H     9.26000023  37.25000000  56.65000153
H     7.02000046  37.22999954  57.11000061
H     4.63000011  36.61999893  56.63999939
H     5.84999990  35.34000015  52.70000076
H    14.04999924  36.09000015  52.74000168
H     3.17999983  35.95000076  55.27000046
H     3.47000003  34.52000046  54.22999954
S    15.29999924  38.01000214  51.51000214
C    17.95999908  38.09000015  50.63000107
C    16.65999985  37.69000244  50.40999985
C    16.31000137  37.02999878  49.19000244
C    17.28999901  36.81999969  48.23999786
C    18.64999962  37.13999939  48.41999817
C    19.71999931  36.93000031  47.50000000
C    21.02999878  37.15999985  47.84999847
C    21.35999870  37.76000214  49.09999847
C    20.32999992  38.01000214  49.98000336
C    18.96000099  37.72999954  49.68999863
C    14.85999966  37.02000046  49.01000214
C    14.22999954  37.50000000  50.19000244
C    12.84000015  37.62000275  50.27000046
C    22.79999924  38.06999969  49.43000031
H    23.24113464  37.50079346  50.24823380
H    18.26000023  38.69999695  51.47999573
H    17.05000114  36.40000153  47.25999832
H    19.45000076  36.52000046  46.52999878
H    21.80999947  36.88999939  47.15000153
H    20.53999901  38.39999771  50.97000122
H    12.35000038  38.06000137  51.12999725
H    23.42000008  37.84000015  48.55999756
H    22.88999939  39.15000153  49.55999756
S    11.57999992  36.25000000  46.68000031
C     8.92000008  36.34000015  47.42000198
C    10.22999954  36.59000015  47.77999878
C    10.65000057  37.21999741  49.00000000
C     9.70000076  37.50999832  49.95999908
C     8.34000015  37.42000198  49.58000183
C     7.30000019  37.65000153  50.52999878
C     5.97000027  37.38999939  50.31000137
C     5.61999989  36.81000137  49.06999969
C     6.57999992  36.40999985  48.16999817
C     7.95000029  36.74000168  48.37999725
C    12.10000038  37.34999847  49.10999680
C    12.69000053  36.84000015  47.93000031
C    14.06000042  36.60000229  47.95000076
C     4.26000023  36.18999863  48.85000229
H     3.76172233  36.67404175  48.01004791
H     8.61999989  35.91999817  46.45999908
H    10.06000042  37.92000198  50.89000320
H     7.60999966  37.79000092  51.56999969
H     5.26999998  37.20000076  51.11999893
H     6.40999985  35.81999969  47.28000259
H    14.55000019  36.22000122  47.04999924
H     3.61999989  36.20999908  49.73999786
H     4.38000011  35.11000061  48.66000366
