96

S    14.84000015  36.91999817  57.42000198
C    17.56999969  37.14999771  56.73999786
C    16.28999901  36.76000214  56.40999603
C    16.03000069  36.40000153  55.05000305
C    17.06999969  36.27000046  54.13999939
C    18.35000038  36.79000092  54.41999817
C    19.42000008  36.84999847  53.47999954
C    20.66999817  37.16999817  53.95000076
C    20.86999893  37.69000244  55.26000214
C    19.88999939  37.63000107  56.22000122
C    18.60999870  37.16999817  55.77999878
C    14.57999992  36.32999802  54.89999771
C    13.76999950  36.58000183  56.04000092
C    12.38999939  36.72999954  56.04000092
C    22.23999977  38.23999786  55.58000183
H    22.78124237  37.44950104  56.09988022
H    17.85000038  37.65999985  57.64999771
H    16.77999878  35.86000061  53.16999817
H    19.22999954  36.59000015  52.43999863
H    21.51000023  37.06999969  53.26000214
H    19.98999977  38.04000092  57.22000122
H    11.84999943  36.95000076  56.95000076
H    22.79999924  38.51000214  54.68000031
H    22.09000015  39.17000198  56.13999939
S    11.38000011  35.79000092  52.35000229
C     8.64000034  35.70999908  53.02000046
C     9.92999935  36.06999969  53.34000015
C    10.29000092  36.51000214  54.65999985
C     9.30000019  36.67000198  55.61000061
C     7.96999979  36.31000137  55.27999878
C     6.97000027  36.37000275  56.30000305
C     5.66999960  36.11000061  55.97000122
C     5.33999968  35.58000183  54.68999863
C     6.32000017  35.27000046  53.76999664
C     7.59999990  35.84000015  53.96999741
C    11.72999954  36.55999756  54.80999756
C    12.48000050  36.12999725  53.68999863
C    13.86999989  36.02000046  53.74000168
C     3.91999984  35.18000031  54.38999939
H     3.36549640  35.74872208  53.64355469
H     8.43999958  34.93999863  52.28000259
H     9.46000004  36.75000000  56.68000031
H     7.30999994  36.68000031  57.29000092
H     4.90000010  36.04000092  56.72999954
H     6.26999950  34.68000031  52.85999680
H    14.52999973  35.77000046  52.91999817
H     3.30999994  35.06999969  55.30000305
H     3.94000006  34.15999985  54.00000000
S    15.46000004  37.72999954  51.36000061
C    18.11000061  38.20000076  50.61000061
C    16.84000015  37.79999924  50.25000000
C    16.47999954  37.27000046  48.96999741
C    17.48999977  37.04000092  48.06000137
C    18.81000137  37.45999908  48.36999893
C    19.88000107  37.29000092  47.43999863
C    21.18999863  37.50000000  47.78999710
C    21.47999954  38.15999985  49.01000214
C    20.48000145  38.40999985  49.92000198
C    19.13999939  38.01000214  49.65999985
C    15.03999901  37.13999939  48.81999969
C    14.34000015  37.50999832  50.00000000
C    12.96000004  37.63000107  50.10000229
C    22.88999939  38.58000183  49.36999893
H    23.35239029  38.06070328  50.20941544
H    18.30000114  38.75999832  51.52000046
H    17.32999992  36.51000214  47.11999893
H    19.62000084  36.84999847  46.47999573
H    22.01000023  37.36000061  47.09000015
H    20.78000069  38.87000275  50.86000061
H    12.30999947  37.57999802  50.97999954
H    23.50000000  38.20999908  48.54000092
H    22.88999939  39.66999817  49.48999786
S    11.77999973  36.15999985  46.63000107
C     9.17000008  35.89999771  47.52999878
C    10.40999985  36.45999908  47.71999741
C    10.77999973  37.13999939  48.92000198
C     9.78999996  37.34999847  49.86000061
C     8.46000004  36.95000076  49.61000061
C     7.37999964  37.11999893  50.52999878
C     6.09000015  36.79999924  50.17000198
C     5.72000027  36.09000015  48.99000168
C     6.76999998  35.81999969  48.15000153
C     8.10999966  36.22000122  48.41999817
C    12.22000027  37.36000061  48.95000076
C    12.89999962  36.90000153  47.78999710
C    14.27999973  36.81000137  47.69000244
C     4.42999983  35.30999756  48.87000275
H     3.79246330  35.84836197  48.16871262
H     9.04999924  35.33000183  46.60999680
H    10.05000019  37.88999939  50.77000046
H     7.55000019  37.70000076  51.43000031
H     5.31000042  37.02999878  50.87999725
H     6.71999979  35.15999985  47.29000092
H    14.68000031  36.56999969  46.70999908
H     4.02999973  35.16999817  49.87999725
H     4.61999989  34.31000137  48.44999695
