96

S    15.11999989  37.11000061  57.43000031
C    17.82999992  37.04000092  56.81000137
C    16.53000069  36.83000183  56.39999771
C    16.13000107  36.25000000  55.15999603
C    17.17000008  35.95999908  54.31000137
C    18.52000046  36.27000046  54.59999847
C    19.60000038  36.25000000  53.67000198
C    20.93000031  36.48999786  53.94000244
C    21.21999931  36.90000153  55.26000214
C    20.23999977  37.06999969  56.20999908
C    18.89000130  36.74000168  55.90999985
C    14.68000031  36.13999939  55.05000305
C    13.97999954  36.76000214  56.11999893
C    12.60000038  36.88000107  56.23000336
C    22.60999870  37.38999939  55.63000107
H    23.04330826  36.79331207  56.43268967
H    18.02999878  37.38999939  57.81000137
H    16.90999985  35.63000107  53.30999756
H    19.22999954  36.11999893  52.65999603
H    21.65999985  36.45000076  53.13999939
H    20.46999931  37.65999985  57.09999847
H    12.10000038  37.13000107  57.15999985
H    23.23999786  37.45999908  54.73999786
H    22.46999931  38.40999985  56.00000000
S    11.51000023  35.54000092  52.57999802
C     8.82000065  35.34000015  53.37999725
C    10.11000061  35.72000122  53.66000366
C    10.44000053  36.30000305  54.93000031
C     9.42000008  36.53000259  55.83000183
C     8.09000015  36.15000153  55.52999878
C     7.02000046  36.27000046  56.46999741
C     5.73999977  35.95000076  56.10000229
C     5.40000010  35.29999924  54.87999725
C     6.43000031  35.06000137  54.01000214
C     7.75000000  35.52000046  54.27999878
C    11.87999916  36.45000076  55.11000061
C    12.53999901  35.90999985  53.97999573
C    13.89999962  35.59999847  54.02000046
C     4.02999973  34.68000031  54.73999786
H     3.40307093  35.31405258  54.11307144
H     8.63000011  34.77999878  52.47000122
H     9.71000004  36.93000031  56.79999924
H     7.17000008  36.79000092  57.41000366
H     4.92000008  36.12999725  56.79000092
H     6.28999996  34.45000076  53.11999893
H    14.40000057  35.30999756  53.09999847
H     3.63000011  34.71999741  55.76000214
H     3.93000007  33.63999939  54.40999985
S    15.59000015  37.57999802  51.40999603
C    18.23999977  37.72000122  50.77000046
C    17.00000000  37.26000214  50.38999939
C    16.61000061  36.93000031  49.05000305
C    17.63000107  36.77000046  48.13999939
C    18.96000099  37.11999893  48.47000122
C    20.07999802  36.79999924  47.64999771
C    21.37000084  36.97000122  48.09999847
C    21.60000038  37.73999786  49.27999878
C    20.56999969  38.01000214  50.14999771
C    19.22999954  37.70999908  49.75999832
C    15.15999985  36.90000153  48.88000107
C    14.48999977  37.34999847  50.04000092
C    13.10999966  37.38999939  50.19000244
C    23.01000214  38.11000061  49.68000031
H    23.35659218  37.43803787  50.46513748
H    18.39999962  38.00000000  51.81000137
H    17.40999985  36.52000046  47.09999847
H    19.93999863  36.41999817  46.63999939
H    22.11999893  36.88999939  47.31999969
H    20.76999855  38.31000137  51.17000198
H    12.68000031  37.37999725  51.18999863
H    23.62999916  38.06000137  48.77999878
H    22.95000076  39.15999985  49.98000336
S    11.92999935  36.09999847  46.56999969
C     9.28999996  35.88000107  47.42000198
C    10.54999924  36.38999939  47.64999771
C    10.88000107  36.90000153  48.95000076
C     9.92999935  37.04999924  49.93000031
C     8.60999966  36.61999893  49.62999725
C     7.55000019  36.86000061  50.54999924
C     6.34999990  36.19999695  50.44000244
C     5.97000027  35.73999786  49.15000153
C     6.91999960  35.56999969  48.16999817
C     8.27999973  35.93000031  48.40999985
C    12.32999992  37.00999832  49.09000015
C    12.98999977  36.61999893  47.90000153
C    14.37000084  36.45999908  47.81000137
C     4.55999994  35.23999786  48.93000031
H     4.04012394  35.78123856  48.13950348
H     9.13000011  35.45999908  46.43000031
H    10.17000008  37.49000168  50.89000320
H     7.73000002  37.44999695  51.45000076
H     5.75999975  36.22999954  51.35000229
H     6.77999973  35.43000031  47.09999847
H    14.94999981  36.17000198  46.93999863
H     4.02999973  35.56999969  49.82999802
H     4.51999998  34.15000153  48.81999969
