96

S    15.05000019  37.38999939  57.29999924
C    17.76000023  37.36000061  56.56000137
C    16.45000076  37.04000092  56.27999878
C    16.06999969  36.51000214  55.00000000
C    17.07999992  36.22000122  54.10999680
C    18.45000076  36.38999939  54.40999985
C    19.52000046  36.17000198  53.48999786
C    20.81999969  36.38000107  53.89999771
C    21.17000198  36.88000107  55.18000031
C    20.15000153  37.20999908  56.04000092
C    18.79999924  36.98999786  55.66999817
C    14.61999989  36.38999939  54.92000198
C    13.90999985  36.88000107  56.04000092
C    12.51999950  36.97000122  56.04999924
C    22.59000015  37.31999969  55.47000122
H    23.02497482  36.82798004  56.33995056
H    18.09000015  37.95999908  57.41000366
H    16.88999939  35.79000092  53.13000107
H    19.31999969  35.95999908  52.43999863
H    21.57999992  36.37000275  53.13000107
H    20.31999969  37.50999832  57.06999969
H    11.92999935  37.26000214  56.90999985
H    23.15999985  37.18000031  54.54000092
H    22.59000015  38.38000107  55.75000000
S    11.40999985  35.58000183  52.48000336
C     8.73999977  35.54000092  53.18000031
C    10.00000000  36.02999878  53.46000290
C    10.36999893  36.60000229  54.72000122
C     9.35999966  36.72999954  55.65000153
C     8.01999950  36.34999847  55.40000153
C     6.90999985  36.54000092  56.26999664
C     5.59000015  36.25000000  56.02000427
C     5.36000013  35.47999954  54.84000397
C     6.40999985  35.19000244  54.00000000
C     7.73999977  35.63999939  54.18000031
C    11.82000065  36.68000031  54.86999893
C    12.50000000  36.06999969  53.79000092
C    13.89000034  35.95000076  53.81000137
C     3.95000005  35.09999847  54.43999863
H     3.44475555  35.84719467  53.82801056
H     8.51000023  34.94999695  52.29999924
H     9.77999973  36.95999908  56.63000107
H     7.18999958  36.98999786  57.22000122
H     4.72000027  36.63999939  56.52999878
H     6.19000006  34.68000031  53.06000137
H    14.35999966  35.65999985  52.87000275
H     3.28999996  34.90999985  55.28999710
H     4.00000000  34.20000076  53.81999969
S    14.98000050  37.79999924  51.29000092
C    17.70000076  37.73999786  50.65999985
C    16.40999985  37.38999939  50.31999969
C    16.13000107  36.98999786  48.96999741
C    17.17000008  36.76000214  48.09000015
C    18.52000046  37.02000046  48.41999817
C    19.67000008  36.88000107  47.58999634
C    20.96999931  37.13999939  47.97000122
C    21.21000099  37.63000107  49.27999878
C    20.10000038  37.84000015  50.06999969
C    18.75000000  37.57999802  49.72000122
C    14.68999958  36.79999924  48.81999969
C    13.96000004  37.27000046  49.93999863
C    12.56999969  37.33000183  50.00000000
C    22.60000038  38.00000000  49.75000000
H    23.12477493  37.16319656  50.21095276
H    17.98999977  38.06999969  51.65000153
H    16.94000053  36.56999969  47.04000092
H    19.47999954  36.55999756  46.56999969
H    21.84999847  36.95999908  47.36000061
H    20.25000000  38.36999893  51.00000000
H    12.10000038  37.65000153  50.93000031
H    23.09999847  38.50000000  48.92000198
H    22.29999924  38.82999802  50.40999985
S    11.46000004  36.05999756  46.44000244
C     8.73999977  36.02999878  47.15999985
C    10.03999901  36.32999802  47.48000336
C    10.39000034  36.72000122  48.81000137
C     9.42000008  36.91999817  49.77000427
C     8.06999969  36.63999939  49.43999863
C     7.00000000  36.81000137  50.35999680
C     5.69999981  36.40000153  50.14999771
C     5.40999985  35.84000015  48.88000107
C     6.34999990  35.86000061  47.87000275
C     7.71000004  36.19999695  48.11000061
C    11.84000015  36.81000137  48.93000031
C    12.56999969  36.40000153  47.77999878
C    13.96000004  36.40000153  47.69000244
C     4.03999996  35.29000092  48.52000427
H     3.62798429  35.87250519  47.69597244
H     8.43999958  35.45000076  46.27999878
H     9.68000031  37.29000092  50.75000000
H     7.18999958  37.18000031  51.36000061
H     5.00999975  36.29000092  50.97999954
H     6.09000015  35.56999969  46.86000061
H    14.45000076  36.24000168  46.73999786
H     3.45000005  35.36000061  49.43999863
H     3.98999977  34.20999908  48.29999924
