96

S    14.81999969  37.16999817  57.43000031
C    17.53000069  37.49000168  56.77999878
C    16.26000023  37.11999893  56.39999771
C    16.05999947  36.54000092  55.11000061
C    17.15999985  36.32999802  54.29000092
C    18.45999908  36.70999908  54.66999817
C    19.62000084  36.60000229  53.83999634
C    20.86999893  37.00000000  54.25000000
C    21.04000092  37.69000244  55.47999954
C    19.95000076  37.84000015  56.30000305
C    18.65999985  37.36999893  55.93999863
C    14.61999989  36.45000076  54.87999725
C    13.82999992  36.74000168  56.02000427
C    12.46000099  36.93000031  56.04000092
C    22.39999962  38.25000000  55.80999756
H    22.90298843  37.64074707  56.56093979
H    17.69000053  37.86000061  57.78999710
H    17.04000092  35.96999741  53.27000046
H    19.48999977  36.08000183  52.90000153
H    21.73999977  36.86999893  53.61999893
H    19.90999985  38.36999893  57.25000000
H    11.97000027  37.27999878  56.95000076
H    22.98999977  38.27999878  54.88999939
H    22.26000023  39.29000092  56.12999725
S    11.36999989  35.61000061  52.49000168
C     8.61999989  35.54999924  53.25000000
C     9.94000053  35.81999969  53.53000259
C    10.26999950  36.32999802  54.82999802
C     9.32999992  36.45000076  55.83000183
C     7.97999954  36.18999863  55.50000000
C     6.90999985  36.37000275  56.42000198
C     5.60999966  36.02000046  56.18000031
C     5.23999977  35.45999908  54.93000031
C     6.23000050  35.31999969  53.97999573
C     7.57999992  35.68999863  54.20999908
C    11.71000004  36.47000122  54.94999695
C    12.44999981  36.00000000  53.83999634
C    13.83999920  36.06999969  53.77999878
C     3.77999997  35.22000122  54.64000320
H     3.31734419  35.89619064  53.92110443
H     8.34000015  35.12000275  52.29000092
H     9.57999992  36.63000107  56.88000107
H     7.16000032  36.65999985  57.43999863
H     4.85000038  36.24000168  56.93000031
H     5.88000011  34.87999725  53.04000092
H    14.37000084  35.58000183  52.97000122
H     3.26999998  35.20999908  55.61999893
H     3.61000013  34.20000076  54.27999878
S    11.51999950  33.67000198  49.81999969
C     8.85999966  33.18999863  50.47999954
C    10.19000053  32.90999985  50.72000122
C    10.62000084  32.16999817  51.86000061
C     9.63999939  31.63999939  52.68000031
C     8.27000046  31.98999786  52.50999832
C     7.25000000  31.48999977  53.36000061
C     5.92000008  31.73000145  53.09000015
C     5.52999973  32.43000031  51.91999817
C     6.47000027  32.86000061  51.00000000
C     7.83999968  32.68000031  51.32999802
C    12.05000019  32.26000214  52.08000183
C    12.64000034  32.93999863  50.97999954
C    13.96000004  33.38999939  51.03000259
C     4.07999992  32.77000046  51.70000076
H     3.68296576  32.28788757  50.80667496
H     8.60000038  33.72999954  49.56999969
H     9.86999989  31.07000160  53.57999802
H     7.57999992  30.84000015  54.16999817
H     5.13000011  31.42000008  53.76999664
H     6.09000015  33.47999954  50.19000244
H    14.42000008  34.03000259  50.28999710
H     3.48000002  32.42000198  52.55000305
H     4.03999996  33.87000275  51.70999908
S    15.38000011  32.00999832  54.41999817
C    18.06999969  32.62000275  53.83999634
C    16.73999977  32.72000122  53.52000427
C    16.21000099  33.22000122  52.29000092
C    17.15999985  33.74000168  51.43000031
C    18.53999901  33.75999832  51.75000000
C    19.47000122  34.36999893  50.86999893
C    20.81999969  34.13999939  51.00000000
C    21.28999901  33.55999756  52.19999695
C    20.45000076  33.11999893  53.20000076
C    19.04000092  33.20000076  52.97999954
C    14.77000046  33.09000015  52.12999725
C    14.17000008  32.33000183  53.16999817
C    12.84999943  31.87999916  53.16999817
C    22.79000092  33.36000061  52.35000229
H    23.14602852  33.51665497  53.36823654
H    18.46999931  31.98999786  54.62999725
H    16.77999878  34.11999893  50.47999954
H    19.00000000  34.90000153  50.04000092
H    21.48999977  34.54999924  50.25000000
H    20.81000137  32.52000046  54.02000046
H    12.44999981  31.24000168  53.94000244
H    23.29000092  34.09000015  51.69000244
H    23.01000214  32.34999847  52.00000000
