96

S    14.96000099  37.29000092  57.50000000
C    17.73999977  37.45999908  56.84999847
C    16.45000076  37.09000015  56.55000305
C    16.11999893  36.44000244  55.31999969
C    17.13000107  36.19999695  54.40000153
C    18.46999931  36.50000000  54.72000122
C    19.55000114  36.40999985  53.80000305
C    20.86999893  36.61999893  54.13000107
C    21.17000198  37.26000214  55.37000275
C    20.15999985  37.43000031  56.26999664
C    18.79999924  37.11999893  55.97999954
C    14.68999958  36.31000137  55.06999969
C    13.92000008  36.67000198  56.19999695
C    12.56000042  36.93000031  56.14999771
C    22.59000015  37.73999786  55.56000137
H    23.10960007  37.02109909  56.19348526
H    18.01000023  37.80999756  57.84000015
H    16.97999954  35.79999924  53.40000153
H    19.34999847  36.25999832  52.74000168
H    21.63999939  36.47000122  53.37999725
H    20.28000069  38.09999847  57.11999893
H    12.07999992  37.33000183  57.04000092
H    23.05999947  37.84000015  54.56999969
H    22.46999931  38.75000000  55.96000290
S    11.49000072  35.45000076  52.64999771
C     8.76000023  35.65999985  53.27000046
C    10.06000042  36.01000214  53.54000092
C    10.40999985  36.50000000  54.84000397
C     9.38000011  36.67000198  55.75000000
C     8.01999950  36.40000153  55.45000076
C     6.93000031  36.40999985  56.37000275
C     5.65000010  35.96999741  56.09000397
C     5.40999985  35.38999939  54.81999969
C     6.43000031  35.22999954  53.90999603
C     7.68000031  35.86000061  54.16999817
C    11.84999943  36.54999924  55.00000000
C    12.60000038  35.98999786  53.93000031
C    13.99000072  35.97999954  53.90999603
C     3.98999977  35.02999878  54.45000076
H     3.61217642  35.57891083  53.58742142
H     8.43000031  35.18000031  52.35000229
H     9.55000019  37.02999878  56.76000214
H     7.13999987  36.84999847  57.34000397
H     4.80999994  36.01000214  56.77999878
H     6.25999975  34.79000092  52.93000031
H    14.61999989  35.54999924  53.13999939
H     3.35000014  35.15000153  55.33000183
H     3.95000005  33.95999908  54.25000000
S    12.10000038  33.59000015  49.75999832
C     9.35999966  33.18000031  50.45999908
C    10.71000004  33.01000214  50.68999863
C    11.18999958  32.36000061  51.86999893
C    10.29000092  31.88999939  52.81000137
C     8.89999962  31.94999886  52.54000092
C     7.92999983  31.40999985  53.43000031
C     6.57000017  31.50000000  53.20999908
C     6.11000013  32.20999908  52.06999969
C     7.02000046  32.76000214  51.18999863
C     8.42000008  32.63999939  51.37000275
C    12.63000011  32.44999695  52.09999847
C    13.26000023  33.13000107  51.02000427
C    14.60000038  33.50000000  51.00000000
C     4.63999987  32.40000153  51.79999924
H     4.29178381  31.83859062  50.93301392
H     8.96000004  33.81000137  49.65999985
H    10.59999943  31.51000023  53.77999878
H     8.27999973  30.81999969  54.27000046
H     5.86999989  30.97999954  53.86000061
H     6.75000000  33.29000092  50.27999878
H    15.08999920  33.94000244  50.13999939
H     4.00999975  32.11999893  52.65999603
H     4.51999998  33.47999954  51.70000076
S    16.02000046  31.77999878  54.27000046
C    18.68999863  32.31999969  53.47999954
C    17.34000015  32.50999832  53.31999969
C    16.81999969  33.18000031  52.16999817
C    17.71999931  33.68000031  51.23000336
C    19.11999893  33.58000183  51.37000275
C    20.09000015  34.27000046  50.59000015
C    21.42999840  34.20000076  50.90000153
C    21.83000183  33.59999847  52.11999893
C    20.95000076  32.93999863  52.95000076
C    19.59000015  32.85000229  52.51999664
C    15.36999893  33.15999985  52.11999893
C    14.78000069  32.38999939  53.15999985
C    13.43999958  32.02000046  53.15000153
C    23.22999954  33.86000061  52.63000107
H    23.53677940  33.23930740  53.47185898
H    19.07999992  31.71999931  54.29999924
H    17.21999931  34.15999985  50.38999939
H    19.73999977  35.05000305  49.92000198
H    22.18000031  34.71999741  50.31000137
H    21.19999886  32.40999985  53.87000275
H    12.94999981  31.45999908  53.95000076
H    23.26999855  34.90000153  52.98999786
H    24.03000069  33.74000168  51.90000153
