96

S    14.52999973  36.95999908  57.27000427
C    17.20999908  37.31999969  56.55000305
C    15.95000076  36.90000153  56.19999695
C    15.62999916  36.40000153  54.88999939
C    16.63999939  36.06999969  54.00000000
C    17.93000031  36.55999756  54.29000092
C    18.98999977  36.34999847  53.36000061
C    20.26000023  36.77999878  53.64999771
C    20.55999947  37.31999969  54.93000031
C    19.57999992  37.40000153  55.89000320
C    18.22000122  37.13000107  55.58000183
C    14.19000053  36.25999832  54.72999954
C    13.47000027  36.67000198  55.87999725
C    12.10999966  36.95000076  55.86999893
C    21.97999954  37.80999756  55.13999939
H    22.56199837  37.02926636  55.62973404
H    17.52000046  37.79000092  57.48000336
H    16.40999985  35.47999954  53.11999893
H    18.78999901  35.90999985  52.37999725
H    21.07000160  36.47000122  52.98999786
H    19.82999992  37.59999847  56.93000031
H    11.54999924  37.14999771  56.79000092
H    22.39999962  38.01000214  54.15000153
H    22.04999924  38.75000000  55.68999863
S    10.97000027  35.89999771  52.25000000
C     8.23999977  35.93000031  52.94000244
C     9.55999947  36.11000061  53.29999924
C     9.92999935  36.53000259  54.61000061
C     8.92000008  36.68999863  55.54999924
C     7.57000017  36.36000061  55.27999878
C     6.56000042  36.27999878  56.26999664
C     5.26000023  36.04999924  55.86999893
C     4.92000008  35.65999985  54.54999924
C     5.88999987  35.70000076  53.56999969
C     7.22000027  36.04999924  53.92000198
C    11.38000011  36.58000183  54.73999786
C    12.07999992  36.06999969  53.61999893
C    13.45000076  35.84999847  53.61000061
C     3.53999996  35.15999985  54.20999908
H     3.18469977  35.65742111  53.30753708
H     7.95000029  35.54999924  51.95999908
H     9.21000004  36.79000092  56.59999847
H     6.76000023  36.31999969  57.34000397
H     4.46999979  35.91999817  56.59999847
H     5.72000027  35.34000015  52.56000137
H    13.97999954  35.68000031  52.68000031
H     2.75999999  35.16999817  54.98000336
H     3.63000011  34.08000183  54.02000046
S    14.98999977  37.79999924  51.36000061
C    17.70000076  37.83000183  50.75000000
C    16.45000076  37.34999847  50.45000076
C    16.09000015  36.61000061  49.27999878
C    17.13999939  36.44000244  48.40000153
C    18.46999931  36.81000137  48.70999908
C    19.54000092  36.48999786  47.81999969
C    20.84000015  36.88000107  48.01000214
C    21.15999985  37.61000061  49.19000244
C    20.17000008  37.90000153  50.10000229
C    18.81000137  37.55000305  49.89999771
C    14.65000057  36.52000046  49.09000015
C    13.90999985  37.21999741  50.06999969
C    12.53999901  37.44999695  49.94999695
C    22.59000015  37.99000168  49.47000122
H    23.07358742  37.26461792  50.12426758
H    17.85000038  38.36000061  51.68000031
H    16.94000053  35.97999954  47.43000031
H    19.22000122  36.04000092  46.88000107
H    21.59000015  36.63000107  47.27000427
H    20.39999962  38.39999771  51.04000092
H    12.10999966  37.88999939  50.84999847
H    23.12000084  38.04000092  48.50999832
H    22.67000008  39.03000259  49.84000397
S    11.56999969  35.35000229  46.72999954
C     8.82000065  35.54999924  47.09000015
C    10.07999992  35.94000244  47.50000000
C    10.39999962  36.79000092  48.60000229
C     9.30999947  37.13000107  49.38000107
C     8.01999950  36.63000107  49.10999680
C     6.93000031  37.00000000  49.93999863
C     5.64000034  36.59000015  49.68000031
C     5.36999989  35.79999924  48.53000259
C     6.39999962  35.38000107  47.71999741
C     7.73000002  35.82999802  47.94000244
C    11.82000065  36.86000061  48.90999603
C    12.57999992  36.09999847  47.97999954
C    13.96000004  35.95999908  48.01000214
C     4.07000017  35.07999802  48.29999924
H     3.46591425  35.66987228  47.61063004
H     8.76999950  34.97999954  46.17000198
H     9.56999969  37.57999802  50.34000015
H     7.14999962  37.73999786  50.70999908
H     4.80999994  36.74000168  50.35999680
H     6.30000019  34.59000015  46.97000122
H    14.42999935  35.56000137  47.11000061
H     3.56999993  35.05000305  49.27999878
H     4.09000015  34.05999756  47.88999939
