96

S    15.39999962  37.04000092  57.61000061
C    18.09000015  37.00999832  56.84000015
C    16.77000046  36.77000046  56.52000046
C    16.39000130  36.31999969  55.20999908
C    17.35000038  36.24000168  54.22999954
C    18.68000031  36.68999863  54.43000031
C    19.70999908  36.74000168  53.44999695
C    21.00000000  37.06000137  53.79000092
C    21.30000114  37.49000168  55.11000061
C    20.32999992  37.55000305  56.07999802
C    19.03000069  37.07999802  55.77999878
C    14.93000031  36.34999847  55.12000275
C    14.23999977  36.68000031  56.31000137
C    12.86000061  36.65999985  56.51000214
C    22.73999977  37.86000061  55.38999939
H    23.17378807  37.30532074  56.22201920
H    18.30999947  37.29000092  57.85999680
H    17.02000046  36.12999725  53.20000076
H    19.47999954  36.40000153  52.43999863
H    21.77999878  36.84999847  53.06000137
H    20.48000145  37.90000153  57.09999847
H    12.38000011  36.95000076  57.43999863
H    23.31999969  37.63000107  54.47999954
H    22.85000038  38.93000031  55.59999847
S    11.63000011  35.86000061  52.83000183
C     8.98999977  35.51000214  53.50000000
C    10.27999973  35.63000107  53.96999741
C    10.59999943  36.17000198  55.26000214
C     9.55000019  36.54000092  56.07999802
C     8.19000053  36.38999939  55.70000076
C     7.07000017  36.56999969  56.56000137
C     5.78999996  36.22999954  56.19999695
C     5.56999969  35.63000107  54.93000031
C     6.61999989  35.47999954  54.05000305
C     7.94000053  35.89999771  54.36999893
C    12.02999973  36.31000137  55.43000031
C    12.71000004  36.04000092  54.22000122
C    14.09000015  35.93000031  54.09000015
C     4.18000031  35.16999817  54.54999924
H     3.78182745  35.64638519  53.65411377
H     8.80999947  35.06999969  52.51999664
H     9.72999954  36.95000076  57.06999969
H     7.22000027  36.93999863  57.57999802
H     4.94999981  36.47000122  56.84000015
H     6.51999998  34.88999939  53.13999939
H    14.60000038  35.75999832  53.13999939
H     3.58999991  35.26000214  55.47000122
H     4.41000032  34.10000229  54.47999954
S    11.76000023  33.75000000  49.92000198
C     9.15999985  33.25999832  50.63000107
C    10.47999954  33.02000046  50.90999985
C    10.92000008  32.29999924  52.06999969
C    10.00000000  31.68000031  52.90000153
C     8.63000011  31.90999985  52.63000107
C     7.57000017  31.37000084  53.40999985
C     6.24000025  31.38999939  53.08000183
C     5.82999992  32.09999847  51.90999985
C     6.80999994  32.70000076  51.16000366
C     8.19999981  32.61000061  51.44000244
C    12.36999989  32.40999985  52.15000153
C    12.94999981  33.16999817  51.10000229
C    14.28999996  33.52999878  51.07999802
C     4.38000011  32.45999908  51.73999786
H     3.91036463  31.99748039  50.87188721
H     8.89999962  33.97999954  49.86000061
H    10.34000015  31.04999924  53.72000122
H     7.92999983  30.86000061  54.29999924
H     5.50000000  31.04999924  53.80000305
H     6.46000004  33.31000137  50.31999969
H    14.67000008  34.09000015  50.22999573
H     3.88999987  32.23999786  52.70000076
H     4.32000017  33.54999924  51.66999817
S    15.77000046  31.68999863  54.29999924
C    18.38000107  32.59999847  53.69999695
C    17.05000114  32.50000000  53.36999893
C    16.57999992  33.25000000  52.25000000
C    17.47999954  33.91999817  51.45000076
C    18.86999893  33.88999939  51.69000244
C    19.82999992  34.43999863  50.77999878
C    21.15999985  34.40999985  51.11000061
C    21.67000008  33.77999878  52.27000427
C    20.73999786  33.29000092  53.15999985
C    19.34000015  33.27000046  52.90000153
C    15.14000034  33.06999969  52.09999847
C    14.57999992  32.25000000  53.09999847
C    13.22999954  31.93000031  53.15000153
C    23.15000153  33.47999954  52.37999725
H    23.59823990  33.84285736  53.30493927
H    18.63999939  32.20000076  54.68000031
H    17.18000031  34.17000198  50.43000031
H    19.65999985  34.80999756  49.78000259
H    21.81999969  34.79999924  50.33000183
H    21.15999985  32.88999939  54.08000183
H    12.92000008  31.18000031  53.87000275
H    23.68999863  33.93000031  51.55000305
H    23.26999855  32.38999939  52.37999725
