96

S    14.80999947  37.50000000  57.60000229
C    17.50000000  37.66999817  56.84000015
C    16.22999954  37.21999741  56.58000183
C    15.88999939  36.63000107  55.31999969
C    16.90000153  36.47000122  54.38000107
C    18.23999977  36.86000061  54.61000061
C    19.29999924  36.65000153  53.68999863
C    20.58000183  37.02999878  54.02000046
C    20.82999992  37.65999985  55.27000046
C    19.81999969  38.01000214  56.13999939
C    18.52000046  37.49000168  55.86999893
C    14.45000076  36.48999786  55.18000031
C    13.73000050  37.02999878  56.26999664
C    12.35000038  37.22999954  56.18000031
C    22.27000046  38.06999969  55.47000122
H    22.74625206  37.35917282  56.14528656
H    17.85000038  38.29000092  57.65999603
H    16.68000031  36.13999939  53.36999893
H    19.09000015  36.17000198  52.72999573
H    21.31000137  36.86000061  53.23999786
H    20.03999901  38.61000061  57.02000046
H    11.90000057  37.75000000  57.02000046
H    22.70000076  38.25000000  54.47999954
H    22.23999977  39.09000015  55.87999725
S    11.23999977  35.61999893  52.75000000
C     8.53999996  35.75999832  53.29999924
C     9.81000042  36.17000198  53.63999939
C    10.17000008  36.68999863  54.92000198
C     9.15000057  36.77999878  55.84000015
C     7.78999996  36.54999924  55.50000000
C     6.74000025  36.77999878  56.43000031
C     5.46999979  36.30000305  56.19999695
C     5.05000019  35.90999985  54.88999939
C     6.09000015  35.79000092  54.00000000
C     7.48000050  36.02000046  54.20000076
C    11.61999893  36.75000000  55.08999634
C    12.35000038  36.11000061  54.05000305
C    13.73999977  36.04999924  54.06000137
C     3.68999982  35.28000259  54.75000000
H     3.04687071  35.88072205  54.10686874
H     8.32999992  35.23999786  52.36999893
H     9.43000031  37.15999985  56.81999969
H     7.03000021  37.06999969  57.43999863
H     4.73000002  36.32999802  56.98999786
H     5.79999971  35.23999786  53.09999847
H    14.26000023  35.81000137  53.13000107
H     3.19000006  35.13999939  55.72000122
H     3.81999993  34.27000046  54.34000015
S    11.90999985  33.98999786  49.73999786
C     9.27999973  33.22000122  50.15999603
C    10.59999943  33.08000183  50.52000046
C    11.03999996  32.34000015  51.66999817
C    10.01999950  31.84999847  52.45999908
C     8.64000034  32.13000107  52.25999832
C     7.63999987  31.68000031  53.15999985
C     6.32000017  31.91999817  52.84000015
C     5.92000008  32.72000122  51.73999786
C     6.88000011  33.06999969  50.80999756
C     8.25000000  32.76000214  51.03000259
C    12.46000099  32.55000305  51.90999985
C    13.05999947  33.44000244  50.98999786
C    14.39000034  33.84000015  51.05999756
C     4.46000004  32.97000122  51.45999908
H     4.19674206  32.61424637  50.46389008
H     9.02999973  33.88000107  49.34000015
H    10.15999985  31.18999863  53.30999756
H     7.96000004  31.18000031  54.06999969
H     5.49000025  31.52000046  53.41999817
H     6.57999992  33.58000183  49.89999771
H    14.78000069  34.36000061  50.19000244
H     3.82999992  32.59000015  52.28000259
H     4.39000034  34.06999969  51.49000168
S    15.71000004  32.27999878  54.50000000
C    18.37000084  32.70000076  53.68999863
C    17.02999878  32.90000153  53.48999786
C    16.60000038  33.56999969  52.29999924
C    17.50000000  34.13999939  51.42000198
C    18.88000107  33.88999939  51.62000275
C    19.81999969  34.33000183  50.63999939
C    21.17000198  34.20999908  50.87999725
C    21.61999893  33.63999939  52.09999847
C    20.75000000  33.13000107  53.02000046
C    19.34000015  33.25000000  52.81999969
C    15.15999985  33.39999771  52.12999725
C    14.59000015  32.61000061  53.16999817
C    13.26000023  32.22999954  53.01000214
C    23.09000015  33.31999969  52.27000427
H    23.51675987  33.52626801  53.25154877
H    18.72999954  32.31999969  54.65000153
H    17.25000000  34.45999908  50.40999985
H    19.34999847  34.94999695  49.87999725
H    21.87999916  34.65999985  50.20000076
H    21.01000023  32.47999954  53.85000229
H    12.89000034  31.76000214  53.90999603
H    23.67000198  33.77999878  51.45999908
H    23.18000031  32.25000000  52.04000092
