96

S    15.21000004  37.47000122  57.29000092
C    17.90999985  37.30999756  56.65000153
C    16.61999893  36.95000076  56.33999634
C    16.22999954  36.29000092  55.13000107
C    17.25000000  35.93000031  54.26000214
C    18.60999870  36.18999863  54.54000092
C    19.67000008  35.84999847  53.64999771
C    20.97999954  36.18000031  53.92000198
C    21.25000000  36.97999954  55.06000137
C    20.28000069  37.25000000  56.00000000
C    18.93000031  36.88000107  55.76000214
C    14.78999996  36.27999878  54.93999863
C    14.11000061  36.86000061  56.04000092
C    12.74000072  37.06000137  55.97000122
C    22.63999939  37.56000137  55.24000168
H    23.11640549  36.99826813  56.04349136
H    18.15999985  38.02999878  57.42000198
H    17.05000114  35.28000259  53.41999817
H    19.38999939  35.59999847  52.63999939
H    21.78999901  36.01000214  53.22000122
H    20.55000114  37.83000183  56.88000107
H    12.36999989  37.50999832  56.88999939
H    23.19000053  37.47000122  54.29999924
H    22.59000015  38.61999893  55.54000092
S    11.59999943  35.77000046  52.34000397
C     8.85999966  35.61999893  53.02999878
C    10.14999962  36.00000000  53.33000183
C    10.57999992  36.53000259  54.59000015
C     9.55999947  36.81000137  55.47999954
C     8.21000004  36.44000244  55.25000000
C     7.16000032  36.68000031  56.17000198
C     5.86000013  36.31000137  55.86999893
C     5.55000019  35.63999939  54.65999985
C     6.51000023  35.42000198  53.69999695
C     7.85000038  35.77000046  54.02000046
C    12.01000023  36.60000229  54.86000061
C    12.67000008  36.11999893  53.70999908
C    14.04000092  35.88999939  53.81999969
C     4.11999989  35.18000031  54.45999908
H     3.65606475  35.61538696  53.57495499
H     8.75000000  35.12000275  52.08000183
H     9.68999958  37.13000107  56.50000000
H     7.39000034  37.26000214  57.05999756
H     5.03999996  36.75000000  56.43000031
H     6.28999996  34.92000198  52.77000046
H    14.68000031  35.68999863  52.97000122
H     3.54999995  35.50000000  55.34000015
H     4.18000031  34.10000229  54.29000092
S    11.46999931  33.63999939  49.54000092
C     8.80000019  33.13999939  50.37000275
C    10.14999962  33.09000015  50.59000015
C    10.67999935  32.54000092  51.81000137
C     9.78999996  32.18000031  52.80000305
C     8.38999939  32.27000046  52.64999771
C     7.42000008  31.94999886  53.63999939
C     6.05999994  32.04999924  53.43000031
C     5.61999989  32.31999969  52.09999847
C     6.48000002  32.88999939  51.18999863
C     7.88999987  32.77000046  51.38999939
C    12.13999939  32.52000046  51.79999924
C    12.74000072  33.13000107  50.66999817
C    14.09999943  33.43000031  50.65000153
C     4.18000031  32.09999847  51.72000122
H     3.87421513  32.14266586  50.67464066
H     8.45000076  33.51000214  49.40999985
H    10.11000061  31.68000031  53.70999908
H     7.77999973  31.54999924  54.58000183
H     5.38999987  31.80000114  54.23999786
H     6.17999983  33.29999924  50.22999573
H    14.42000008  34.15000153  49.89999771
H     3.95000005  31.11000061  52.14000320
H     3.55999994  32.73999786  52.36000061
S    15.39000034  32.11000061  54.20000076
C    18.04000092  32.45999908  53.50000000
C    16.72000122  32.70999908  53.18999863
C    16.36000061  33.32999802  51.95000076
C    17.35000038  33.86000061  51.14999771
C    18.72999954  33.61999893  51.38000107
C    19.78999901  33.97000122  50.50000000
C    21.09000015  33.69999695  50.84000015
C    21.40000153  33.04999924  52.05999756
C    20.38999939  32.61000061  52.88000107
C    19.03000069  32.86999893  52.57999802
C    14.93999958  33.09999847  51.70999908
C    14.32000065  32.54000092  52.85999680
C    12.96000004  32.26000214  52.90000153
C    22.81999969  32.59000015  52.36000061
H    23.20378876  33.11593246  53.23418808
H    18.27000046  31.97999954  54.45000076
H    17.19000053  34.43000031  50.24000168
H    19.48999977  34.50000000  49.59999847
H    21.88999939  34.03000259  50.18000031
H    20.52000046  31.80000114  53.59000397
H    12.51000023  32.06000137  53.87000275
H    23.45999908  32.78000259  51.49000168
H    22.78000069  31.51000023  52.55000305
