96

S    14.86999989  37.18000031  57.30999756
C    17.53000069  37.47999954  56.59999847
C    16.27000046  37.06000137  56.22000122
C    15.90000057  36.55999756  54.93000031
C    16.95000076  36.38999939  54.05000305
C    18.27000046  36.77999878  54.38000107
C    19.29000092  36.65999985  53.40000153
C    20.59999847  36.88000107  53.75999832
C    20.95000076  37.36999893  55.04000092
C    19.96000099  37.52000046  55.98999786
C    18.57999992  37.38999939  55.65000153
C    14.46000004  36.31999969  54.86000061
C    13.75000000  36.79000092  55.98999786
C    12.36999989  36.97000122  56.00999832
C    22.39000130  37.70999908  55.35999680
H    22.81675720  37.04852295  56.11394119
H    17.78000069  37.78000259  57.61000061
H    16.77000046  36.09999847  53.02000046
H    19.04999924  36.36000061  52.37999725
H    21.38000107  36.65999985  53.04000092
H    20.09000015  37.95999908  56.97000122
H    11.78999996  37.25000000  56.88999939
H    22.98000145  37.66999817  54.43999863
H    22.34000015  38.77000046  55.63999939
S    11.21999931  35.75000000  52.41000366
C     8.51000023  35.77999878  53.15000153
C     9.80000019  36.18999863  53.39000320
C    10.17000008  36.70000076  54.68000031
C     9.21000004  36.81999969  55.65999985
C     7.86000013  36.48999786  55.40000153
C     6.88000011  36.63999939  56.42000198
C     5.60999966  36.15000153  56.24000168
C     5.26999998  35.56000137  55.00000000
C     6.15999985  35.45000076  53.95999908
C     7.50000000  35.89999771  54.13000107
C    11.61000061  36.63000107  54.88999939
C    12.31999969  36.18999863  53.74000168
C    13.68000031  35.94000244  53.75999832
C     3.81999993  35.20999908  54.72999954
H     3.50709677  35.82158279  53.88373947
H     8.23000050  35.38999939  52.16999817
H     9.34000015  37.00999832  56.72999954
H     7.28999996  37.09000015  57.31999969
H     4.82999992  36.45000076  56.93999863
H     5.88999987  35.22000122  52.93000031
H    14.25000000  35.73999786  52.85999680
H     3.28999996  35.52000046  55.63999939
H     3.78999996  34.13999939  54.52999878
S    11.61999893  33.54999924  49.75999832
C     8.89999962  33.06999969  50.40999985
C    10.24000072  32.93000031  50.68000031
C    10.76000023  32.40000153  51.90000153
C     9.85000038  31.94999886  52.83000183
C     8.45000076  32.06999969  52.62000275
C     7.46000004  31.60000038  53.53000259
C     6.11999989  31.83000183  53.31999969
C     5.66999960  32.43000031  52.11999893
C     6.57999992  32.75000000  51.13999939
C     7.96999979  32.65999985  51.39999771
C    12.20999908  32.54000092  52.04000092
C    12.86000061  33.20999908  50.97999954
C    14.17000008  33.68999863  51.00999832
C     4.21000004  32.81999969  52.02000046
H     3.73504782  32.43011475  51.11971664
H     8.53999996  33.59000015  49.52000046
H    10.13000011  31.25999832  53.61999893
H     7.73999977  31.12999916  54.47000122
H     5.46000004  31.61000061  54.15999985
H     6.21999979  33.29999924  50.27000046
H    14.53999996  34.22999954  50.13999939
H     3.71000004  32.38999939  52.90000153
H     4.15999985  33.90999985  51.98999786
S    15.52000046  32.13000107  54.36999893
C    18.17000008  32.72999954  53.79000092
C    16.84000015  32.84000015  53.43000031
C    16.39999962  33.47999954  52.22999954
C    17.34000015  33.95000076  51.33999634
C    18.71000099  33.77999878  51.65000153
C    19.73999977  34.13999939  50.73999786
C    21.05999947  33.95000076  51.07999802
C    21.47000122  33.31000137  52.28000259
C    20.52000046  32.88999939  53.18000031
C    19.15999985  33.11999893  52.84999847
C    14.94999981  33.32999802  52.11000061
C    14.34000015  32.52999878  53.11000061
C    12.98999977  32.19000244  53.15000153
C    22.95999908  33.13999939  52.47000122
H    23.35099602  33.99308014  53.02450180
H    18.51000023  32.22999954  54.68999863
H    16.98999977  34.20999908  50.34000015
H    19.40000153  34.59000015  49.80999756
H    21.86000061  34.10000229  50.35999680
H    20.85000038  32.43999863  54.12000275
H    12.56000042  31.78999901  54.06000137
H    23.43000031  33.09000015  51.47999573
H    23.09000015  32.14999771  52.91999817
