96

S    15.22999954  37.09000015  57.34000397
C    17.86999893  37.14999771  56.59999847
C    16.56999969  37.00000000  56.18999863
C    16.13999939  36.61000061  54.87999725
C    17.13999939  36.47999954  53.93000031
C    18.50000000  36.65000153  54.27999878
C    19.61000061  36.54999924  53.40999985
C    20.92000008  36.84999847  53.72000122
C    21.24000168  37.22999954  55.04000092
C    20.20999908  37.43000031  55.93000031
C    18.89000130  36.97000122  55.63000107
C    14.70000076  36.45000076  54.84000397
C    14.06000042  36.90999985  56.02000427
C    12.67000008  36.90999985  56.11000061
C    22.67000008  37.68000031  55.28999710
H    23.14653587  37.21057510  56.15060806
H    18.15999985  37.47000122  57.60000229
H    16.80999947  36.20999908  52.93000031
H    19.43000031  36.31000137  52.36000061
H    21.75000000  36.56999969  53.08000183
H    20.32999992  37.92000198  56.88999939
H    12.23999977  36.95999908  57.11000061
H    23.31999969  37.50000000  54.43000031
H    22.63000107  38.75999832  55.50000000
S    11.42000008  36.09999847  52.43999863
C     8.73999977  35.88999939  53.13999939
C    10.03000069  36.15000153  53.54000092
C    10.42000008  36.45000076  54.87999725
C     9.39000034  36.51000214  55.80999756
C     8.02999973  36.31999969  55.47000122
C     7.02000046  36.31999969  56.47999573
C     5.73999977  36.04000092  56.09000397
C     5.38000011  35.86999893  54.72000122
C     6.34000015  35.82999802  53.74000168
C     7.71000004  35.97999954  54.10999680
C    11.85999966  36.60000229  55.00999832
C    12.53000069  36.25000000  53.81000137
C    13.92000008  36.15999985  53.70999908
C     4.00999975  35.36000061  54.36999893
H     3.55416846  35.96540070  53.58654022
H     8.47999954  35.56000137  52.14000320
H     9.68999958  36.70000076  56.83000183
H     7.16000032  36.59000015  57.51999664
H     4.96000004  35.88000107  56.83000183
H     5.95000029  35.73999786  52.71999741
H    14.39000034  35.86000061  52.77999878
H     3.35000014  35.43999863  55.25000000
H     3.96000004  34.34999847  53.94000244
S    12.07999992  33.77000046  49.69999695
C     9.43000031  33.58000183  50.26000214
C    10.69000053  33.18999863  50.63999939
C    11.05999947  32.47999954  51.81999969
C     9.98000050  32.15999985  52.63000107
C     8.63000011  32.45999908  52.30999756
C     7.50999975  32.07999802  53.09999847
C     6.21999979  32.50999832  52.91999817
C     5.96000004  33.09000015  51.65000153
C     6.98999977  33.41999817  50.79999924
C     8.36000061  33.15000153  51.07999802
C    12.50000000  32.50000000  51.98999786
C    13.20000076  33.15000153  50.93999863
C    14.53999996  33.50000000  50.90999985
C     4.53000021  33.29999924  51.19999695
H     4.09524727  32.67994308  50.41601944
H     9.23999977  34.25000000  49.41999817
H    10.21999931  31.73999977  53.60000229
H     7.63999987  31.47000122  53.99000168
H     5.50000000  32.09999847  53.61999893
H     6.72999954  33.72999954  49.79000092
H    15.06999969  33.90999985  50.05000305
H     3.84999990  33.29000092  52.05999756
H     4.51999998  34.33000183  50.81999969
S    15.72999954  32.09999847  54.43000031
C    18.40999985  32.59999847  53.88000107
C    17.09000015  32.79000092  53.53000259
C    16.64999962  33.38000107  52.29999924
C    17.60000038  33.88999939  51.43000031
C    18.96999931  33.65000153  51.70999908
C    20.02000046  33.97000122  50.80999756
C    21.35000038  33.72000122  51.04999924
C    21.68999863  33.13000107  52.29000092
C    20.76000023  32.90999985  53.27999878
C    19.37999916  33.08000183  52.97000122
C    15.21000004  33.25999832  52.11000061
C    14.56999969  32.56999969  53.16999817
C    13.22999954  32.20000076  53.15000153
C    23.08000183  32.63000107  52.62000275
H    23.55225182  33.16664886  53.44285583
H    18.68999863  31.90000153  54.65999985
H    17.21999931  34.38999939  50.54999924
H    19.70000076  34.38000107  49.86000061
H    22.17000008  34.03000259  50.40000153
H    21.04999924  32.50999832  54.25000000
H    12.71000004  31.87000084  54.03999710
H    23.59000015  32.63999939  51.63999939
H    22.95000076  31.57999992  52.91999817
