96

S    14.59000015  37.20999908  57.32999802
C    17.30999947  37.47999954  56.49000168
C    16.01000023  37.06999969  56.27999878
C    15.64000034  36.58000183  54.99000168
C    16.62999916  36.34999847  54.05000305
C    17.98999977  36.58000183  54.36999893
C    19.03000069  36.22000122  53.46000290
C    20.35000038  36.38999939  53.80000305
C    20.73999786  37.00000000  55.01999664
C    19.76000023  37.31999969  55.93999863
C    18.38000107  37.13000107  55.63999939
C    14.21000004  36.43000031  54.81999969
C    13.50000000  36.76000214  56.00000000
C    12.13000107  36.95000076  56.05999756
C    22.18000031  37.36000061  55.27000046
H    22.59113503  36.76456451  56.08518219
H    17.51000023  37.93999863  57.44999695
H    16.31999969  35.93000031  53.09999847
H    18.84000015  36.01000214  52.41000366
H    21.04999924  36.31999969  52.97000122
H    20.03999901  37.80999756  56.86999893
H    11.59999943  37.23999786  56.97000122
H    22.72999954  37.23999786  54.33000183
H    22.36000061  38.41999817  55.47999954
S    10.93000031  35.56000137  52.55000305
C     8.19999981  35.34000015  53.39000320
C     9.52000046  35.66999817  53.61999893
C     9.89999962  36.34000015  54.81999969
C     8.88000011  36.63999939  55.72000122
C     7.53000021  36.27000046  55.52999878
C     6.44000006  36.53000259  56.40999603
C     5.14999962  36.12999725  56.19999695
C     4.86000013  35.40000153  55.00999832
C     5.82000017  35.22000122  54.03999710
C     7.16000032  35.59000015  54.31999969
C    11.32999992  36.55999756  54.98000336
C    12.02000046  36.15000153  53.81000137
C    13.40999985  36.05999756  53.73000336
C     3.42999983  35.13000107  54.61000061
H     3.12537932  35.64006042  53.69613647
H     7.94000053  34.84999847  52.44999695
H     9.22000027  37.04999924  56.66999817
H     6.75000000  37.06000137  57.30999756
H     4.40000010  36.47999954  56.90000153
H     5.72000027  34.90000153  53.00000000
H    13.97999954  35.88000107  52.81999969
H     2.86000013  35.59000015  55.41999817
H     3.17999983  34.06999969  54.52000046
S    11.69999981  33.59999847  49.78000259
C     9.03999996  33.09000015  50.37000275
C    10.36000061  32.88000107  50.70000076
C    10.80000019  32.25000000  51.90999985
C     9.82999992  31.71999931  52.75000000
C     8.46000004  31.86000061  52.43999863
C     7.44999981  31.38000107  53.33000183
C     6.11000013  31.52000046  53.06000137
C     5.71000004  32.16999817  51.86000061
C     6.67000008  32.63000107  50.98999786
C     8.05999947  32.50999832  51.22000122
C    12.20999908  32.47999954  52.15000153
C    12.82999992  33.20000076  51.09000397
C    14.15999985  33.59999847  51.06999969
C     4.26000023  32.56000137  51.72000122
H     3.76104116  32.13232040  50.85038757
H     8.60999966  33.61000061  49.52999878
H    10.17000008  31.22999954  53.66000366
H     7.90000010  30.92000008  54.20999908
H     5.42999983  31.14999962  53.81999969
H     6.40999985  33.02999878  50.00999832
H    14.67000008  34.13999939  50.27999878
H     3.67000008  32.22999954  52.57999802
H     4.11999989  33.65000153  51.77999878
S    15.50000000  31.94000053  54.45000076
C    18.18000031  32.40000153  53.70999908
C    16.84000015  32.61000061  53.48999786
C    16.39999962  33.13000107  52.22999954
C    17.31999969  33.52999878  51.26999664
C    18.70000076  33.47999954  51.58000183
C    19.70000076  33.98999786  50.70000076
C    21.04000092  33.95000076  50.98999786
C    21.50000000  33.46999741  52.25000000
C    20.55000114  32.93999863  53.09000015
C    19.15999985  32.86000061  52.80000305
C    14.94999981  33.08000183  52.09999847
C    14.34000015  32.40000153  53.18999863
C    12.97999954  32.11999893  53.26000214
C    22.92000008  33.80000305  52.63000107
H    23.30916977  33.28346634  53.50740433
H    18.57999992  32.02999878  54.65000153
H    17.01000023  34.04999924  50.37000275
H    19.27999878  34.57999802  49.88999939
H    21.67000008  34.50000000  50.30000305
H    20.72000122  32.90000153  54.15999985
H    12.48999977  31.51000023  54.01000214
H    22.90999985  34.86000061  52.90999985
H    23.52999878  33.54999924  51.76000214
