96

S    15.06999969  37.26000214  57.31999969
C    17.77000046  37.38999939  56.68000031
C    16.51000023  37.00999832  56.31000137
C    16.20000076  36.43000031  55.04000092
C    17.25000000  36.22999954  54.15999985
C    18.54999924  36.68000031  54.50000000
C    19.55000114  36.32999802  53.54999924
C    20.86999893  36.53000259  53.88000107
C    21.18999863  37.19000244  55.08999634
C    20.20999908  37.68000031  55.91999817
C    18.84000015  37.33000183  55.75000000
C    14.75000000  36.41999817  54.86000061
C    13.99000072  36.75000000  56.00999832
C    12.60000038  36.75000000  56.04999924
C    22.65000153  37.52999878  55.30000305
H    22.96997452  37.12469864  56.25992584
H    17.94000053  37.88000107  57.63999939
H    17.17000008  35.51000214  53.34999847
H    19.22000122  36.00000000  52.56999969
H    21.61999893  36.31000137  53.11999893
H    20.45999908  38.18999863  56.84999847
H    12.10000038  37.04999924  56.97000122
H    23.19999886  37.11999893  54.43999863
H    22.80999947  38.61000061  55.34000015
S    11.65999985  35.47999954  52.41000366
C     8.89999962  35.36999893  53.00000000
C    10.18000031  35.72999954  53.34999847
C    10.47999954  36.29000092  54.62999725
C     9.44000053  36.50000000  55.52000046
C     8.10999966  36.11999893  55.21999741
C     7.05999947  36.27000046  56.17000198
C     5.77000046  35.86000061  55.90000153
C     5.51000023  35.25000000  54.65000153
C     6.48999977  35.19000244  53.68000031
C     7.83999968  35.59000015  53.90999603
C    11.90999985  36.38000107  54.88999939
C    12.69000053  35.95000076  53.79000092
C    14.06999969  35.82999802  53.79000092
C     4.07000017  34.90000153  54.36000061
H     3.67063594  35.59175491  53.61832428
H     8.69000053  34.99000168  52.00000000
H     9.68999958  36.81999969  56.52999878
H     7.21000004  36.70999908  57.15000153
H     4.99000025  36.04000092  56.63999939
H     6.39999962  34.73999786  52.70000076
H    14.65999985  35.52000046  52.93000031
H     3.54999995  34.97000122  55.33000183
H     4.13000011  33.88000107  53.94000244
S    15.88999939  37.62000275  51.69000244
C    18.60000038  37.90999985  50.84999847
C    17.30999947  37.47999954  50.63000107
C    16.94000053  36.93999863  49.36000061
C    17.93000031  36.70999908  48.41999817
C    19.29999924  36.93000031  48.70999908
C    20.29000092  37.04999924  47.70000076
C    21.57999992  37.43000031  48.00000000
C    21.97999954  37.52000046  49.36000061
C    21.01000023  37.73999786  50.31000137
C    19.63999939  37.54000092  49.97000122
C    15.50000000  36.77999878  49.22999954
C    14.78000069  37.15999985  50.38000107
C    13.40000057  37.26000214  50.38000107
C    23.44000053  37.72000122  49.72000122
H    23.72428131  37.22961426  50.65102386
H    18.90999985  38.45999908  51.73999786
H    17.64999962  36.65000153  47.36999893
H    19.97999954  37.04000092  46.65999985
H    22.19000053  37.73999786  47.15999985
H    21.18000031  38.18999863  51.29000092
H    12.74000072  37.49000168  51.20999908
H    23.88999939  37.27999878  48.81999969
H    23.55999947  38.81000137  49.75000000
S    12.43000031  35.98999786  46.70999908
C     9.70000076  36.09999847  47.25999832
C    10.98999977  36.27999878  47.70000076
C    11.28999901  36.88999939  48.95999908
C    10.26000023  37.09999847  49.86999893
C     8.93000031  36.77999878  49.52000046
C     7.77999973  36.93999863  50.34000015
C     6.51999998  36.45999908  50.06999969
C     6.30999994  35.86000061  48.79000092
C     7.36000013  35.73999786  47.91999817
C     8.65999985  36.24000168  48.20999908
C    12.71999931  36.98999786  49.18000031
C    13.45999908  36.51000214  48.06999969
C    14.81999969  36.25000000  48.11999893
C     4.96000004  35.33000183  48.36000061
H     4.49153090  36.00431061  47.64310074
H     9.50000000  35.56999969  46.32999802
H    10.47999954  37.50000000  50.84999847
H     8.09000015  37.34999847  51.30000305
H     5.84000015  36.43000031  50.91999817
H     7.14999962  35.20999908  46.98999786
H    15.42000008  35.68000031  47.42000198
H     4.32999992  35.20000076  49.23999786
H     5.26000023  34.33000183  48.02999878
