96

S    15.27999973  37.20999908  57.56999969
C    17.98999977  36.98999786  56.86000061
C    16.65999985  36.90000153  56.50000000
C    16.23999977  36.51000214  55.19000244
C    17.20999908  36.27000046  54.22999954
C    18.55999947  36.58000183  54.52000046
C    19.55999947  36.63000107  53.50999832
C    20.88999939  36.81000137  53.82999802
C    21.24000168  37.36000061  55.08999634
C    20.29999924  37.43999863  56.09000397
C    18.96999931  36.98999786  55.84000015
C    14.80000019  36.31999969  55.11000061
C    14.14000034  36.72000122  56.30000305
C    12.75000000  36.70999908  56.35000229
C    22.67999840  37.70999908  55.43000031
H    23.08536911  37.07705307  56.21940231
H    18.17000008  37.21999741  57.90999985
H    16.90999985  35.88000107  53.26000214
H    19.37000084  36.32999802  52.48000336
H    21.65999985  36.68999863  53.08000183
H    20.55000114  37.88999939  57.04000092
H    12.20999908  37.11999893  57.19999695
H    23.21000099  37.56000137  54.48999786
H    22.67000008  38.77999878  55.68999863
S    11.57999992  35.49000168  52.70999908
C     8.85999966  35.45000076  53.40999985
C    10.17000008  35.68000031  53.76999664
C    10.52999973  36.15000153  55.06999969
C     9.50000000  36.36000061  55.96000290
C     8.15999985  36.12999725  55.56999969
C     7.07999992  36.45999908  56.44000244
C     5.75999975  36.25999832  56.11999893
C     5.40999985  35.72000122  54.86000061
C     6.39999962  35.54000092  53.90999603
C     7.76000023  35.81000137  54.22000122
C    11.97000027  36.24000168  55.28999710
C    12.64000034  35.86999893  54.09000015
C    14.02999973  35.81000137  54.06000137
C     4.03999996  35.15000153  54.59000015
H     3.41585064  35.75287247  53.93038940
H     8.63000011  35.06000137  52.42000198
H     9.71000004  36.67000198  56.97999954
H     7.42000008  36.70999908  57.43999863
H     4.98000002  36.30000305  56.88000107
H     6.06999969  35.06999969  52.98999786
H    14.55000019  35.49000168  53.16999817
H     3.52999973  35.00000000  55.54999924
H     4.23000002  34.13999939  54.20999908
S    15.40999985  37.54000092  51.40999603
C    18.09000015  37.72000122  50.63000107
C    16.80999947  37.29999924  50.34999847
C    16.36999893  36.65999985  49.13999939
C    17.35999870  36.43000031  48.20000076
C    18.68999863  36.86999893  48.40000153
C    19.68000031  36.65999985  47.39999771
C    21.00000000  36.93999863  47.68000031
C    21.40999985  37.40999985  48.95999908
C    20.46999931  37.69000244  49.92000198
C    19.09000015  37.42000198  49.66999817
C    14.93000031  36.50000000  49.03999710
C    14.27000046  36.88000107  50.22999573
C    12.89000034  37.04999924  50.27999878
C    22.82999992  37.88999939  49.15000153
H    23.22158813  37.30617905  49.98301315
H    18.44000053  38.25000000  51.51000214
H    17.12000084  35.98999786  47.23999786
H    19.42000008  36.34999847  46.38999939
H    21.75000000  36.91999817  46.90000153
H    20.69999886  38.23999786  50.83000183
H    12.43999958  37.50000000  51.14999771
H    23.38999939  37.63999939  48.25000000
H    22.79999924  38.97999954  49.33000183
S    11.75000000  35.94000244  46.65999985
C     9.07999992  35.58000183  47.45999908
C    10.32999992  36.09999847  47.70999908
C    10.72000027  36.63000107  48.97999573
C     9.77000046  36.74000168  49.98000336
C     8.46000004  36.25999832  49.75000000
C     7.39000034  36.54999924  50.65000153
C     6.09000015  36.22000122  50.33000183
C     5.73999977  35.66999817  49.06999969
C     6.76000023  35.28000259  48.22999954
C     8.10000038  35.72000122  48.47000122
C    12.17000008  36.63000107  49.15000153
C    12.88000011  36.30000305  47.97000122
C    14.25000000  36.09999847  47.88000107
C     4.32000017  35.22000122  48.79000092
H     3.89411092  35.68848038  47.90273285
H     8.90999985  34.93999863  46.59999847
H    10.05000019  37.16999817  50.93999863
H     7.67000008  36.93999863  51.62000275
H     5.29999971  36.32999802  51.05999756
H     6.70000029  34.65999985  47.34000397
H    14.75999928  35.70000076  47.01000214
H     3.65000010  35.54000092  49.59000015
H     4.28000021  34.13000107  48.72000122
