96

S    14.63999939  37.43000031  57.27000427
C    17.39999962  37.33000183  56.68000031
C    16.10999870  36.95999908  56.39999771
C    15.80000019  36.38000107  55.13000107
C    16.79000092  36.18000031  54.18000031
C    18.12000084  36.56999969  54.45000076
C    19.18000031  36.51000214  53.48999786
C    20.48000145  36.76000214  53.86000061
C    20.81999969  37.25000000  55.14999771
C    19.80999947  37.30999756  56.09000397
C    18.45000076  37.04000092  55.77000046
C    14.37000084  36.17000198  54.93999863
C    13.61999989  36.70000076  56.02000427
C    12.23999977  36.86999893  55.98999786
C    22.22999954  37.70999908  55.43000031
H    22.80641937  36.96990585  55.98506927
H    17.68000031  37.84000015  57.60000229
H    16.72999954  35.72999954  53.18999863
H    18.94000053  36.11999893  52.50999832
H    21.25999832  36.68000031  53.11999893
H    19.90999985  37.68000031  57.09999847
H    11.71000004  37.27999878  56.84999847
H    22.73999977  37.86000061  54.47000122
H    22.15999985  38.59999847  56.06999969
S    11.21000099  35.40000153  52.51999664
C     8.47999954  35.43999863  53.20999908
C     9.77999973  35.77000046  53.50000000
C    10.10000038  36.44000244  54.72999954
C     9.10000038  36.65000153  55.65999985
C     7.75000000  36.38000107  55.33000183
C     6.63000011  36.55999756  56.18999863
C     5.35000038  36.12999725  55.90999985
C     5.12000036  35.31999969  54.77000427
C     6.15999985  35.06000137  53.88999939
C     7.42000008  35.68000031  54.12000275
C    11.54999924  36.48999786  54.82999802
C    12.32999992  35.94000244  53.77999878
C    13.71000099  35.81000137  53.76999664
C     3.71000004  34.79999924  54.62999725
H     3.14969707  35.34611893  53.87110519
H     8.19999981  34.84000015  52.34000397
H     9.34000015  37.00999832  56.65999985
H     6.75000000  37.02999878  57.15999985
H     4.57999992  36.40000153  56.63000107
H     6.07999992  34.54999924  52.93000031
H    14.25000000  35.51000214  52.87000275
H     3.31999993  34.87999725  55.65000153
H     3.82999992  33.75999832  54.31000137
S    15.19999981  37.59000015  51.49000168
C    17.84000015  37.76000214  50.75000000
C    16.57999992  37.30999756  50.41999817
C    16.28000069  36.67000198  49.18000031
C    17.22999954  36.53000259  48.18000031
C    18.53000069  36.98999786  48.50000000
C    19.57999992  36.70999908  47.57999802
C    20.86999893  36.98999786  47.97000122
C    21.18999863  37.73999786  49.12000275
C    20.19000053  37.95000076  50.05000305
C    18.85000038  37.57999802  49.77000427
C    14.82999992  36.54999924  49.10999680
C    14.09000015  36.97999954  50.24000168
C    12.71000004  37.14999771  50.27000046
C    22.60000038  38.13000107  49.50000000
H    22.98562813  37.48014069  50.28554153
H    18.06999969  38.29999924  51.66999817
H    17.06999969  36.11999893  47.18999863
H    19.36000061  36.08000183  46.72000122
H    21.70999908  36.79000092  47.30999756
H    20.36000061  38.47999954  50.97999954
H    12.22000027  37.52000046  51.16000366
H    23.29000092  38.11000061  48.63999939
H    22.50999832  39.17000198  49.84000397
S    11.54999924  35.81000137  46.72999954
C     8.88000011  35.79999924  47.45999908
C    10.18000031  36.09999847  47.81999969
C    10.52000046  36.63000107  49.09999847
C     9.50000000  36.77999878  50.01999664
C     8.14999962  36.48999786  49.71000290
C     7.11999989  36.70000076  50.66999817
C     5.82999992  36.31999969  50.40000153
C     5.51999998  35.79000092  49.12000275
C     6.48999977  35.58000183  48.16999817
C     7.82999992  35.97999954  48.40000153
C    11.97000027  36.72999954  49.15999985
C    12.67000008  36.11999893  48.08000183
C    14.04999924  36.15000153  48.01000214
C     4.11999989  35.25000000  48.94000244
H     3.61405420  35.74882126  48.11338425
H     8.64999962  35.43000031  46.46999741
H     9.73999977  37.04999924  51.04999924
H     7.40000010  37.04000092  51.66999817
H     5.03999996  36.48999786  51.12999725
H     6.40999985  34.84000015  47.37999725
H    14.65999985  35.93000031  47.14000320
H     3.51000023  35.36000061  49.85000229
H     4.21999979  34.18999863  48.66000366
