96

S    14.88000011  36.77000046  57.39999771
C    17.64999962  36.98999786  56.77999878
C    16.36999893  36.58000183  56.45999908
C    16.06999969  36.17000198  55.12000275
C    17.11000061  36.05999756  54.20999908
C    18.43000031  36.47999954  54.48999786
C    19.55000114  36.18000031  53.67000198
C    20.82999992  36.44000244  54.09999847
C    21.04999924  37.22999954  55.27000046
C    19.97999954  37.47999954  56.09000397
C    18.64999962  37.06999969  55.79000092
C    14.65000057  36.12999725  54.82999802
C    13.89000034  36.60000229  55.93999863
C    12.53000069  36.88999939  55.93000031
C    22.46999931  37.69000244  55.50000000
H    23.17000961  36.96856308  55.92143631
H    17.90999985  37.43999863  57.74000168
H    16.97000122  35.40000153  53.36000061
H    19.40000153  35.79000092  52.67000198
H    21.70000076  36.12999725  53.54000092
H    20.20000076  38.04000092  56.98999786
H    12.03999996  37.21999741  56.84000015
H    22.93999863  38.09999847  54.59000015
H    22.32000160  38.54999924  56.17000198
S    11.42000008  35.51000214  52.42000198
C     8.71000004  35.43999863  53.15999985
C    10.00000000  35.81999969  53.43999863
C    10.39000034  36.43000031  54.68000031
C     9.40999985  36.70000076  55.61999893
C     8.05999947  36.45000076  55.31999969
C     7.03000021  36.77000046  56.25000000
C     5.71000004  36.58000183  55.90999985
C     5.36999989  35.82999802  54.75000000
C     6.34000015  35.40000153  53.88000107
C     7.69999981  35.73999786  54.12000275
C    11.84000015  36.55999756  54.75999832
C    12.56999969  36.09000015  53.63999939
C    13.93000031  35.79999924  53.68000031
C     3.95000005  35.40999985  54.41999817
H     3.37414527  36.04273224  53.74461365
H     8.47999954  34.87999725  52.25999832
H     9.67000008  37.19000244  56.56000137
H     7.30000019  37.11999893  57.23999786
H     4.92999983  37.07999802  56.46999741
H     6.17000008  34.87999725  52.94000244
H    14.42999935  35.43000031  52.78999710
H     3.37000012  35.30999756  55.34000015
H     4.05000019  34.41999817  53.95999908
S    15.32999992  37.59000015  51.38999939
C    18.02999878  37.50000000  50.77999878
C    16.73999977  37.18000031  50.40000153
C    16.35000038  36.61999893  49.13999939
C    17.38000107  36.31999969  48.27000046
C    18.73999977  36.48999786  48.63999939
C    19.77000046  36.22000122  47.70000076
C    21.04999924  36.63999939  47.97999954
C    21.45000076  37.09000015  49.27000046
C    20.43999863  37.36999893  50.15999603
C    19.05999947  37.18000031  49.86000061
C    14.89999962  36.53000259  49.02000046
C    14.21000004  37.18000031  50.06999969
C    12.82999992  37.30999756  50.14999771
C    22.89999962  37.40999985  49.55999756
H    23.25551033  36.87673187  50.44166565
H    18.26000023  37.90999985  51.76000214
H    17.10000038  35.81999969  47.35000229
H    19.48999977  35.89999771  46.70000076
H    21.80000114  36.61999893  47.19999695
H    20.62999916  37.59000015  51.20999908
H    12.38000011  37.62000275  51.09000397
H    23.59000015  37.14999771  48.74000168
H    22.93999863  38.48999786  49.71000290
S    11.67000008  35.77999878  46.66999817
C     8.93000031  35.95999908  47.43999863
C    10.26000023  36.24000168  47.63999939
C    10.59000015  36.86000061  48.89999771
C     9.64999962  37.13000107  49.87999725
C     8.28999996  36.81000137  49.69999695
C     7.25000000  37.02999878  50.63999939
C     5.93999958  36.75000000  50.31000137
C     5.60999966  36.09000015  49.09000015
C     6.61000013  35.84999847  48.16999817
C     7.95000029  36.27000046  48.40999985
C    12.02999973  36.95000076  49.06000137
C    12.72999954  36.34000015  47.97999954
C    14.09000015  36.04999924  47.98999786
C     4.19999981  35.72000122  48.69999695
H     3.73718405  36.41066360  47.99509430
H     8.57999992  35.29999924  46.65000153
H    10.05000019  37.45999908  50.84000015
H     7.57000017  37.22999954  51.65999985
H     5.19000006  37.02000046  51.04000092
H     6.35999966  35.38000107  47.22999954
H    14.51000023  35.54000092  47.12999725
H     3.65000010  35.54999924  49.62999725
H     4.21000004  34.70999908  48.27999878
