96

S    15.18000031  37.29000092  57.49000168
C    17.88999939  37.19000244  56.90000153
C    16.61000061  36.86000061  56.52000046
C    16.22999954  36.45000076  55.20999908
C    17.22999954  36.25000000  54.27999878
C    18.57999992  36.53000259  54.59000015
C    19.61000061  36.65000153  53.61000061
C    20.88999939  37.02000046  53.92000198
C    21.21999931  37.27000046  55.27999878
C    20.22000122  37.40000153  56.20999908
C    18.89999962  36.97999954  55.91999817
C    14.78999996  36.54999924  54.97000122
C    14.09000015  36.95000076  56.12999725
C    12.71000004  36.83000183  56.24000168
C    22.63999939  37.61000061  55.65999985
H    22.99487686  36.99961090  56.49041367
H    18.02999878  37.77000046  57.81000137
H    17.05000114  36.08000183  53.22000122
H    19.44000053  36.32999802  52.57999802
H    21.75000000  36.97999954  53.25000000
H    20.45000076  37.70000076  57.22999954
H    12.18999958  37.20999908  57.11999893
H    23.38000107  37.62000275  54.85000229
H    22.53999901  38.65000153  56.00000000
S    11.57999992  35.72999954  52.55000305
C     8.86999989  35.63000107  53.33000183
C    10.18000031  35.90999985  53.61999893
C    10.57000065  36.31999969  54.93999863
C     9.55999947  36.40000153  55.86999893
C     8.19000053  36.19999695  55.59000015
C     7.13000011  36.51000214  56.50000000
C     5.82999992  36.19999695  56.19999695
C     5.46000004  35.61000061  54.95999908
C     6.46000004  35.42000198  54.02999878
C     7.82000017  35.72999954  54.27999878
C    12.01000023  36.48999786  55.06999969
C    12.68000031  36.18999863  53.86000061
C    14.06999969  36.17000198  53.82999802
C     4.03999996  35.25000000  54.59999847
H     3.60683751  35.92459488  53.86149216
H     8.67999935  35.13999939  52.37999725
H     9.72999954  36.77999878  56.88000107
H     7.42000008  36.65999985  57.54000092
H     4.94999981  36.30000305  56.83000183
H     6.19999981  35.02000046  53.04999924
H    14.68000031  35.84000015  52.98999786
H     3.42000008  35.20999908  55.50000000
H     4.11000013  34.20999908  54.23999786
S    11.84999943  33.97000122  49.69999695
C     9.22999954  33.25999832  50.30000305
C    10.57000065  33.13999939  50.61000061
C    11.07999992  32.38999939  51.70999908
C    10.14000034  31.77999878  52.52999878
C     8.76000023  31.84999847  52.25999832
C     7.76000023  31.31999969  53.11999893
C     6.43000031  31.45000076  52.81000137
C     5.98999977  32.29999924  51.77000046
C     6.90000010  32.77000046  50.84999847
C     8.27999973  32.59999847  51.11999893
C    12.50000000  32.65999985  51.86999893
C    13.09999943  33.40999985  50.83000183
C    14.37000084  33.97999954  50.90999985
C     4.55999994  32.75000000  51.56999969
H     3.98414588  32.31632996  50.75242615
H     8.85000038  33.87000275  49.48999786
H    10.40999985  31.45999908  53.54000092
H     8.18000031  30.88999939  54.02999878
H     5.71000004  31.01000023  53.50000000
H     6.61000013  33.38000107  49.99000168
H    14.67000008  34.70999908  50.17000198
H     4.02999973  32.47000122  52.49000168
H     4.67999983  33.84000015  51.66999817
S    15.71000004  32.36000061  54.29999924
C    18.38000107  32.86000061  53.61000061
C    17.04000092  33.01000214  53.33000183
C    16.56999969  33.68000031  52.15999985
C    17.51000023  34.13000107  51.25999832
C    18.89999962  34.00000000  51.49000168
C    19.86999893  34.38000107  50.52000046
C    21.21999931  34.26000214  50.73999786
C    21.63999939  33.91999817  52.05999756
C    20.75000000  33.34999847  52.95000076
C    19.34999847  33.36000061  52.70000076
C    15.13000011  33.51000214  51.98999786
C    14.52000046  32.80999756  53.06000137
C    13.22000027  32.31999969  53.02000046
C    23.12999916  33.77999878  52.28000259
H    23.44881630  33.73749161  53.32146835
H    18.68999863  32.22999954  54.43999863
H    17.18000031  34.50000000  50.28999710
H    19.54000092  34.77000046  49.55999756
H    21.93000031  34.40999985  49.93999863
H    21.07000160  32.81999969  53.83999634
H    12.88000011  31.64999962  53.80000305
H    23.65999985  34.54000092  51.70000076
H    23.38999939  32.80999756  51.84999847
