96

S    14.92000008  37.21999741  57.28000259
C    17.60000038  37.25000000  56.62000275
C    16.31999969  36.95000076  56.23000336
C    15.98000050  36.47999954  54.92000198
C    17.02000046  36.27999878  54.02999878
C    18.34000015  36.67000198  54.34999847
C    19.37000084  36.70000076  53.36000061
C    20.63999939  37.13000107  53.63999939
C    20.89999962  37.55000305  54.97000122
C    19.95000076  37.65000153  55.96000290
C    18.64999962  37.13999939  55.68000031
C    14.55000019  36.48999786  54.68999863
C    13.88000011  36.91999817  55.86999893
C    12.50000000  37.02999878  55.90000153
C    22.32999992  37.86000061  55.38000107
H    22.77858353  37.31885147  56.21308517
H    17.70000076  37.59000015  57.64999771
H    16.73999977  35.90999985  53.04999924
H    19.09000015  36.38999939  52.36000061
H    21.38999939  36.93999863  52.88000107
H    20.06000137  37.90000153  57.01000214
H    11.98999977  37.31999969  56.81000137
H    23.02999878  37.93000031  54.54000092
H    22.32000160  38.90999985  55.68999863
S    11.23000050  36.00000000  52.29999924
C     8.59000015  35.70999908  53.09999847
C     9.85000038  36.17000198  53.40999985
C    10.27999973  36.45999908  54.75000000
C     9.32999992  36.70000076  55.72000122
C     7.99000025  36.32999802  55.41999817
C     6.98000002  36.37000275  56.43000031
C     5.69000006  35.98999786  56.16000366
C     5.32000017  35.43999863  54.89999771
C     6.30000019  35.31999969  53.94000244
C     7.63000011  35.79999924  54.13999939
C    11.72999954  36.63999939  54.79999924
C    12.39999962  36.31000137  53.60000229
C    13.78000069  36.15999985  53.55999756
C     3.93000007  34.86000061  54.72000122
H     3.25461507  35.43585205  54.08726883
H     8.46000004  35.34000015  52.09000015
H     9.39000034  37.15999985  56.70000076
H     7.21000004  36.72000122  57.43000031
H     5.00999975  35.91999817  57.00000000
H     6.17000008  34.64999771  53.09000015
H    14.21000004  35.70999908  52.67000198
H     3.52999973  34.59999847  55.70000076
H     4.21000004  33.93000031  54.20999908
S    15.90999985  38.02999878  51.23000336
C    18.57999992  38.08000183  50.51000214
C    17.30999947  37.66999817  50.20000076
C    16.94000053  37.11000061  48.93000031
C    17.94999886  37.00999832  48.00000000
C    19.29999924  37.27000046  48.34000015
C    20.36000061  37.19000244  47.38999939
C    21.65999985  37.33000183  47.80000305
C    21.98999786  37.78000259  49.10999680
C    20.98999977  38.16999817  49.97000122
C    19.64999962  37.81999969  49.61999893
C    15.50000000  36.91999817  48.82999802
C    14.80999947  37.40000153  49.98000336
C    13.43000031  37.56999969  50.00999832
C    23.40999985  38.09999847  49.52000046
H    23.67984390  37.57451248  50.43605042
H    18.73999977  38.72999954  51.37000275
H    17.75000000  36.59000015  47.01000214
H    20.06000137  36.63999939  46.50000000
H    22.52000046  37.16999817  47.15000153
H    21.11999893  38.54000092  50.97999954
H    12.92000008  38.06999969  50.81999969
H    24.09000015  37.85000229  48.69999695
H    23.45999908  39.17000198  49.73999786
S    12.28999996  36.19999695  46.39999771
C     9.59999943  36.02000046  47.15000153
C    10.88999939  36.38999939  47.45999908
C    11.23000050  37.09999847  48.66000366
C    10.21999931  37.44999695  49.54999924
C     8.90999985  37.00999832  49.29000092
C     7.85000038  37.20000076  50.22999573
C     6.58999968  36.72000122  50.00000000
C     6.30999994  35.94000244  48.83999634
C     7.25000000  35.81999969  47.84999847
C     8.56000042  36.34000015  48.06000137
C    12.65999985  37.13999939  48.92000198
C    13.32999992  36.67000198  47.76000214
C    14.70999908  36.59000015  47.71999741
C     4.85000038  35.58000183  48.61000061
H     4.39575624  36.23297501  47.86475754
H     9.39999962  35.42000198  46.26999664
H    10.53999996  37.77000046  50.54000092
H     8.17000008  37.59000015  51.18999863
H     5.82999992  37.04999924  50.70999908
H     6.93000031  35.56999969  46.84999847
H    15.15999985  36.54000092  46.73999786
H     4.28000021  35.61999893  49.54999924
H     4.88000011  34.56999969  48.18999863
