96

S    15.39999962  37.59000015  57.22000122
C    18.12999916  37.29999924  56.70000076
C    16.82999992  37.06999969  56.31000137
C    16.46000099  36.63999939  54.99000168
C    17.46000099  36.53000259  54.05000305
C    18.81999969  36.70000076  54.40000153
C    19.88000107  36.70000076  53.43999863
C    21.15999985  37.06000137  53.77999878
C    21.51000023  37.45999908  55.08999634
C    20.48999977  37.50999832  56.02000427
C    19.14999962  37.11999893  55.72999954
C    15.01999950  36.56999969  54.81999969
C    14.29999924  37.09000015  55.93000031
C    12.92000008  37.11000061  56.07999802
C    22.95000076  37.70000076  55.47000122
H    23.27827454  37.14336014  56.34777451
H    18.42000008  37.86000061  57.58999634
H    17.20999908  36.25999832  53.02000046
H    19.64999962  36.41999817  52.41000366
H    21.87999916  37.19000244  52.97999954
H    20.76999855  37.69000244  57.05999756
H    12.44999981  37.37999725  57.02000046
H    23.40999985  37.52000046  54.47999954
H    23.18000031  38.75999832  55.65000153
S    11.72000027  35.61000061  52.61000061
C     9.07999992  35.50000000  53.41999817
C    10.36999893  35.86000061  53.73000336
C    10.72999954  36.38999939  55.00999832
C     9.71000004  36.65000153  55.90999985
C     8.34999943  36.32999802  55.65999985
C     7.27999973  36.61999893  56.55000305
C     5.98999977  36.34999847  56.17000198
C     5.69000006  35.70000076  54.93999863
C     6.71999979  35.38999939  54.08000183
C     8.05999947  35.77000046  54.36999893
C    12.17000008  36.59000015  55.00999832
C    12.86000061  36.15000153  53.86000061
C    14.23999977  36.13999939  53.73000336
C     4.32999992  35.09000015  54.65999985
H     3.75102162  35.64753342  53.92376709
H     8.88000011  34.90999985  52.51999664
H    10.01999950  37.20000076  56.79000092
H     7.57999992  36.93999863  57.55000305
H     5.19000006  36.60000229  56.86000061
H     6.51000023  35.00999832  53.09000015
H    14.84000015  35.79999924  52.88999939
H     3.72000003  34.97999954  55.56999969
H     4.42000008  34.04999924  54.31999969
S    15.88999939  37.97000122  51.37000275
C    18.59000015  37.97000122  50.61000061
C    17.28999901  37.63000107  50.33000183
C    16.87999916  37.07999802  49.06999969
C    17.90999985  36.83000183  48.18000031
C    19.27000046  37.13999939  48.40000153
C    20.25000000  37.00999832  47.37999725
C    21.53000069  37.43000031  47.68000031
C    21.97000122  37.86999893  48.95000076
C    20.98999977  38.04999924  49.88999939
C    19.62000084  37.73999786  49.65999985
C    15.43000031  36.95999908  48.95000076
C    14.78000069  37.27999878  50.17000198
C    13.40000057  37.36000061  50.28999710
C    23.36999893  38.34000015  49.27999878
H    23.83281326  37.63509750  49.97066116
H    18.78000069  38.38999939  51.59999847
H    17.67000008  36.38999939  47.21000290
H    19.88999939  36.74000168  46.38999939
H    22.25000000  37.34999847  46.86999893
H    21.21999931  38.45999908  50.86999893
H    12.89999962  37.63000107  51.20999908
H    23.98999977  38.34999847  48.37999725
H    23.29000092  39.34999847  49.71000290
S    12.18999958  36.19999695  46.63999939
C     9.51000023  36.18999863  47.36999893
C    10.80999947  36.47000122  47.72999573
C    11.18000031  36.90999985  49.03999710
C    10.19000053  37.11000061  49.98000336
C     8.85000038  36.72000122  49.71000290
C     7.72000027  36.88000107  50.56000137
C     6.39999962  36.76000214  50.20999908
C     6.17000008  36.08000183  48.97999573
C     7.20000029  35.79999924  48.13000107
C     8.53999996  36.22000122  48.39000320
C    12.61999989  37.06000137  49.16999817
C    13.27000046  36.68000031  47.97000122
C    14.65999985  36.61000061  47.84000015
C     4.76999998  35.66999817  48.57999802
H     4.27261257  36.42318726  47.96892166
H     9.15999985  35.72000122  46.45000076
H    10.36999893  37.43000031  51.00000000
H     8.00000000  37.31999969  51.52000046
H     5.64000034  36.95999908  50.96000290
H     7.02000046  35.09000015  47.31999969
H    15.06999969  36.34000015  46.88000107
H     4.28999996  35.63000107  49.56999969
H     4.75000000  34.61999893  48.25000000
