96

S    14.86999989  37.47999954  57.47000122
C    17.56999969  37.47000122  56.72000122
C    16.27000046  37.14999771  56.43000031
C    15.98000050  36.54999924  55.15999603
C    16.95999908  36.30000305  54.22000122
C    18.29000092  36.68000031  54.51000214
C    19.29999924  36.67000198  53.50999832
C    20.62000084  36.90999985  53.81999969
C    20.95999908  37.56000137  55.04000092
C    19.93000031  37.83000183  55.90999985
C    18.60999870  37.31999969  55.76000214
C    14.52999973  36.40000153  55.06000137
C    13.81000042  36.90000153  56.17000198
C    12.43000031  37.04000092  56.13999939
C    22.39999962  37.84000015  55.38999939
H    22.89949226  37.16211700  56.08215714
H    17.75000000  37.90999985  57.70000076
H    16.60000038  35.95999908  53.25000000
H    18.97999954  36.15999985  52.61000061
H    21.42000008  36.68999863  53.11999893
H    20.20000076  38.27000046  56.86999893
H    11.92000008  37.54000092  56.95999908
H    22.92000008  37.86999893  54.41999817
H    22.43999863  38.84999847  55.81999969
S    11.44999981  35.66999817  52.50000000
C     8.78999996  35.49000168  53.15000153
C    10.03000069  35.95000076  53.52000427
C    10.27999973  36.60000229  54.77000427
C     9.26000023  36.81999969  55.68999863
C     7.96000004  36.43000031  55.27999878
C     6.90000010  36.58000183  56.20999908
C     5.61999989  36.18000031  55.90000153
C     5.35000038  35.52000046  54.68000031
C     6.35999966  35.43999863  53.74000168
C     7.69999981  35.82999802  54.00000000
C    11.71000004  36.63000107  55.00999832
C    12.43999958  36.15999985  53.88999939
C    13.81999969  35.95999908  53.94000244
C     3.94000006  35.00000000  54.48999786
H     3.46915841  35.59211731  53.70526505
H     8.64999962  34.86999893  52.27000427
H     9.55000019  37.06000137  56.70999908
H     7.13000011  36.88999939  57.22999954
H     4.86999989  36.30000305  56.68000031
H     6.25999975  34.92000198  52.78999710
H    14.34999943  35.56999969  53.06999969
H     3.28999996  35.02000046  55.37000275
H     3.97000027  33.93000031  54.23999786
S    15.19000053  37.78000259  51.56000137
C    17.86999893  37.99000168  50.90000153
C    16.61999893  37.55000305  50.52999878
C    16.31000137  36.95000076  49.26000214
C    17.36999893  36.70999908  48.40999985
C    18.68000031  37.02000046  48.83999634
C    19.73999977  36.79999924  47.90999985
C    21.00000000  37.23999786  48.22999954
C    21.28999901  37.83000183  49.48999786
C    20.29999924  38.13999939  50.38000107
C    18.97999954  37.68000031  50.07999802
C    14.86999989  36.84000015  49.06999969
C    14.15999985  37.29999924  50.20000076
C    12.76999950  37.42000198  50.20999908
C    22.70000076  38.22999954  49.86999893
H    23.19176865  37.53154755  50.54707336
H    17.93000031  38.58000183  51.81000137
H    17.15999985  36.41999817  47.37999725
H    19.54000092  36.34999847  46.93999863
H    21.75000000  37.09999847  47.45999908
H    20.56999969  38.84999847  51.17000198
H    12.44999981  37.90999985  51.11999893
H    23.44000053  38.31000137  49.06000137
H    22.67999840  39.25000000  50.27999878
S    11.61999893  36.13999939  46.63000107
C     8.89000034  35.96999741  47.36999893
C    10.19000053  36.32999802  47.64999771
C    10.62000084  36.88999939  48.89999771
C     9.64999962  37.22999954  49.81999969
C     8.30000019  36.86000061  49.59999847
C     7.36999989  36.97999954  50.66999817
C     6.02999973  36.79000092  50.40999985
C     5.63000011  36.27999878  49.13999939
C     6.51999998  36.00000000  48.13000107
C     7.90000010  36.25999832  48.34999847
C    12.05999947  36.98999786  49.08000183
C    12.76000023  36.63999939  47.88999939
C    14.14000034  36.48999786  47.91999817
C     4.18000031  35.88999939  48.94000244
H     3.79584408  36.40220642  48.05786514
H     8.57999992  35.45999908  46.45999908
H     9.92000008  37.70000076  50.77000046
H     7.73000002  37.18000031  51.68000031
H     5.33999968  36.81000137  51.24000168
H     6.12999964  35.66999817  47.18000031
H    14.65000057  36.13999939  47.02999878
H     3.55999994  36.22000122  49.78000259
H     4.13000011  34.79000092  49.00000000
