96

S    15.46000004  37.34000015  57.43000031
C    18.07999992  37.49000168  56.60999680
C    16.79000092  37.14999771  56.27999878
C    16.35000038  36.59000015  55.02999878
C    17.35000038  36.38000107  54.09999847
C    18.70000076  36.68999863  54.38999939
C    19.65999985  36.48999786  53.34999847
C    20.96999931  36.84999847  53.55999756
C    21.40000153  37.43000031  54.78000259
C    20.46999931  37.61000061  55.77000046
C    19.09000015  37.27000046  55.65000153
C    14.89999962  36.41999817  55.01999664
C    14.27000046  36.86000061  56.20999908
C    12.89000034  37.00000000  56.38999939
C    22.82999992  37.92000198  54.92000198
H    23.27245712  37.44900131  55.79777527
H    18.30000114  38.09000015  57.49000168
H    17.12000084  36.00000000  53.11000061
H    19.25000000  35.93000031  52.50999832
H    21.68000031  36.68999863  52.76000214
H    20.79999924  38.09999847  56.68000031
H    12.51999950  37.29000092  57.36000061
H    23.35000038  37.52999878  54.03999710
H    22.76000023  39.01000214  54.95999908
S    11.64999962  35.86999893  52.75000000
C     8.94999981  35.84000015  53.41999817
C    10.24000072  36.18999863  53.76999664
C    10.64000034  36.67000198  55.06000137
C     9.61999989  36.86999893  55.97999954
C     8.27999973  36.51000214  55.72999954
C     7.26999998  36.58000183  56.72999954
C     5.97000027  36.25000000  56.42000198
C     5.63000011  35.77999878  55.12000275
C     6.58999968  35.72000122  54.13999939
C     7.95000029  36.01000214  54.41999817
C    12.06999969  36.68999863  55.30000305
C    12.71999931  36.27999878  54.09999847
C    14.09000015  36.13999939  53.90999603
C     4.23999977  35.29000092  54.77000427
H     3.72040176  35.92348480  54.05110550
H     8.64999962  35.40999985  52.47000122
H     9.94000053  37.26000214  56.95000076
H     7.51999950  36.83000183  57.76000214
H     5.25000000  36.31000137  57.22000122
H     6.44999981  35.40000153  53.11000061
H    14.52999973  35.82999802  52.97000122
H     3.68999982  35.18000031  55.70999908
H     4.34999990  34.27999878  54.36999893
S    15.65000057  37.86999893  51.47999573
C    18.31999969  37.93999863  50.76000214
C    17.04000092  37.52999878  50.43000031
C    16.75000000  36.86000061  49.20000076
C    17.79000092  36.63000107  48.31999969
C    19.05999947  37.21999741  48.54000092
C    20.12000084  36.93999863  47.63000107
C    21.42999840  37.26000214  47.94000244
C    21.70999908  38.04000092  49.09000015
C    20.69999886  38.29000092  49.98000336
C    19.36000061  37.83000183  49.80999756
C    15.29999924  36.83000183  49.05000305
C    14.57999992  37.34000015  50.15999603
C    13.20000076  37.52000046  50.20000076
C    23.12000084  38.52000046  49.38000107
H    23.70468330  37.79271317  49.94329453
H    18.50000000  38.45000076  51.70999908
H    17.68000031  35.95999908  47.47000122
H    19.80999947  36.34999847  46.77000046
H    22.26000023  36.86999893  47.36000061
H    20.88999939  38.82999802  50.90000153
H    12.77999973  37.72000122  51.18000031
H    23.57999992  38.79000092  48.43000031
H    23.02000046  39.45999908  49.93000031
S    12.02000046  36.15000153  46.68000031
C     9.35000038  36.04000092  47.42000198
C    10.62999916  36.44000244  47.74000168
C    11.00999928  37.02000046  48.99000168
C    10.03000069  37.27000046  49.93000031
C     8.69000053  36.95999908  49.58000183
C     7.67000008  37.16999817  50.54999924
C     6.34999990  36.95000076  50.25000000
C     5.98000002  36.18000031  49.10999680
C     6.96000004  35.91999817  48.18000031
C     8.31999969  36.31000137  48.34999847
C    12.46000099  37.15999985  49.06999969
C    13.15000057  36.61999893  47.95999908
C    14.53999996  36.48999786  47.93000031
C     4.53999996  35.81999969  48.81999969
H     4.11269474  36.41822815  48.01524353
H     9.15999985  35.40999985  46.55000305
H    10.27999973  37.62000275  50.91999817
H     7.97999954  37.62000275  51.49000168
H     5.51999998  37.22999954  50.89000320
H     6.84000015  35.31999969  47.28000259
H    15.01999950  36.12999725  47.02000046
H     4.05999994  36.08000183  49.77000427
H     4.55000019  34.72999954  48.72000122
