96

S    15.01000023  37.31999969  57.32999802
C    17.75000000  37.34000015  56.77999878
C    16.47999954  36.98999786  56.39999771
C    16.10999870  36.43000031  55.13000107
C    17.11000061  36.38000107  54.18000031
C    18.43000031  36.81999969  54.45000076
C    19.52000046  36.48999786  53.60000229
C    20.78000069  36.98999786  53.85000229
C    21.05999947  37.59999847  55.10000229
C    20.06999969  37.75000000  56.04000092
C    18.76000023  37.27000046  55.77999878
C    14.68999958  36.13999939  54.97000122
C    13.96000004  36.61000061  56.09000397
C    12.57999992  36.77999878  56.05999756
C    22.47999954  38.02000046  55.40999985
H    22.86999321  37.49528122  56.28216553
H    18.04999924  37.80999756  57.70999908
H    16.90999985  35.95000076  53.20999908
H    19.22000122  36.00000000  52.68000031
H    21.60000038  36.98999786  53.13999939
H    20.26000023  38.41999817  56.88000107
H    12.13999939  37.30999756  56.90000153
H    23.09999847  37.75000000  54.54999924
H    22.49000168  39.11000061  55.44000244
S    11.51000023  35.26000214  52.56999969
C     8.76000023  35.13000107  53.34999847
C    10.06000042  35.52000046  53.56999969
C    10.42000008  36.13999939  54.80999756
C     9.43000031  36.40999985  55.73999786
C     8.10000038  35.95999908  55.58000183
C     7.07999992  36.09999847  56.56000137
C     5.77000046  35.84000015  56.24000168
C     5.45000029  35.45000076  54.92000198
C     6.38999987  35.20999908  53.95000076
C     7.76000023  35.33000183  54.33000183
C    11.85999966  36.31999969  54.94999695
C    12.60000038  35.73999786  53.88999939
C    13.97999954  35.68999863  53.85000229
C     4.02999973  35.05000305  54.58000183
H     3.61665630  35.54886246  53.70342636
H     8.46000004  34.77999878  52.36999893
H     9.67000008  36.97999954  56.63000107
H     7.34000015  36.45999908  57.56000137
H     5.05999994  35.97999954  57.04999924
H     6.12999964  34.72999954  53.01000214
H    14.59000015  35.31999969  53.02999878
H     3.38999987  35.29000092  55.45000076
H     3.96000004  33.95999908  54.47000122
S    15.29999924  37.13999939  51.43000031
C    17.97000122  37.66999817  50.58000183
C    16.69999886  37.21999741  50.34000015
C    16.28000069  36.81999969  49.02999878
C    17.23999977  36.72999954  48.04999924
C    18.60999870  37.02000046  48.27999878
C    19.63999939  36.95000076  47.29999924
C    20.92000008  37.43000031  47.49000168
C    21.31000137  37.86999893  48.77999878
C    20.27000046  38.09000015  49.65000153
C    18.90999985  37.68000031  49.52000046
C    14.82999992  36.79999924  48.88000107
C    14.13000011  36.97000122  50.10000229
C    12.75000000  36.84999847  50.19000244
C    22.73999977  38.27999878  49.06000137
H    23.22606659  37.60093689  49.76050949
H    18.30999947  38.09999847  51.52000046
H    16.93000031  36.31999969  47.09000015
H    19.42000008  36.54999924  46.31999969
H    21.56999969  37.27999878  46.63999939
H    20.51000214  38.50000000  50.63000107
H    12.31999969  37.09000015  51.16000366
H    23.31999969  38.38000107  48.13000107
H    22.82999992  39.22999954  49.61000061
S    11.65999985  36.18999863  46.38999939
C     8.98999977  35.94000244  47.18000031
C    10.26999950  36.34000015  47.48000336
C    10.64000034  36.74000168  48.81000137
C     9.63999939  36.79000092  49.75999832
C     8.30000019  36.45000076  49.45000076
C     7.23000002  36.50000000  50.38999939
C     5.93999958  36.15999985  50.04000092
C     5.63000011  35.63000107  48.75999832
C     6.63999987  35.52000046  47.83000183
C     7.95000029  35.97999954  48.13999939
C    12.09000015  36.70000076  48.96999741
C    12.76999950  36.41999817  47.76000214
C    14.15999985  36.45000076  47.70000076
C     4.23999977  35.19000244  48.36000061
H     3.96317768  35.68685913  47.43016052
H     8.71999931  35.43000031  46.25000000
H     9.98000050  37.04000092  50.76000214
H     7.40000010  36.97999954  51.35000229
H     5.23000002  36.34999847  50.84000015
H     6.50000000  35.12000275  46.83000183
H    14.78999996  36.17000198  46.86999893
H     3.54999995  35.38999939  49.19000244
H     4.28999996  34.11000061  48.18000031
