96

S    15.21999931  37.73999786  56.97000122
C    17.93000031  37.70000076  56.38999939
C    16.64999962  37.38999939  55.97999954
C    16.22999954  36.90000153  54.71000290
C    17.22999954  36.79000092  53.75999832
C    18.55999947  37.16999817  54.05000305
C    19.56999969  37.00000000  53.06000137
C    20.86999893  37.33000183  53.36000061
C    21.24000168  37.79000092  54.65000153
C    20.29000092  37.86999893  55.65000153
C    18.92000008  37.56999969  55.38999939
C    14.78999996  36.81999969  54.54000092
C    14.09000015  37.16999817  55.72999954
C    12.71000004  37.27000046  55.83000183
C    22.63999939  38.22000122  55.00999832
H    23.13873482  37.62151718  55.77235031
H    18.04999924  38.02000046  57.42000198
H    17.04000092  36.32999802  52.78999710
H    19.32999992  36.45999908  52.15000153
H    21.54999924  37.13000107  52.52999878
H    20.40999985  38.20000076  56.68000031
H    12.20000076  37.55000305  56.75000000
H    23.22000122  38.29999924  54.08000183
H    22.56999969  39.24000168  55.38999939
S    11.46000004  36.30000305  52.22999954
C     8.78000069  35.95000076  53.02999878
C    10.06999969  36.31999969  53.34000015
C    10.46000004  36.77999878  54.64000320
C     9.40999985  36.93999863  55.54000092
C     8.06999969  36.59000015  55.26000214
C     7.00999975  36.70999908  56.20999908
C     5.69000006  36.53000259  55.89000320
C     5.36000013  35.94000244  54.65000153
C     6.38999987  35.65000153  53.77999878
C     7.72000027  36.11000061  53.95000076
C    11.90000057  36.95000076  54.72999954
C    12.60000038  36.72000122  53.52000427
C    13.99000072  36.70000076  53.40000153
C     3.95000005  35.45999908  54.36000061
H     3.50735497  36.00259781  53.52468491
H     8.67000008  35.43000031  52.08000183
H     9.57999992  37.27999878  56.56000137
H     7.26000023  37.16999817  57.16999817
H     4.86999989  36.72999954  56.58000183
H     6.10000038  35.20999908  52.83000183
H    14.44000053  36.51000214  52.43000031
H     3.38000011  35.59000015  55.27999878
H     4.00999975  34.36999893  54.19000244
S    11.82000065  34.15999985  49.36000061
C     9.19000053  33.54000092  50.15999603
C    10.53999996  33.58000183  50.45000076
C    11.10999966  33.06999969  51.65999985
C    10.31999969  32.43999863  52.60000229
C     8.92000008  32.45999908  52.36999893
C     8.05999947  31.86000061  53.31999969
C     6.71000004  31.87999916  53.02999878
C     6.12999964  32.22999954  51.79000092
C     6.97000027  32.79999924  50.84999847
C     8.34999943  32.97000122  51.14999771
C    12.56000042  33.13999939  51.72000122
C    13.07000065  33.80000305  50.56999969
C    14.42999935  34.08000183  50.50000000
C     4.69999981  31.81999969  51.50000000
H     4.32365417  32.35256577  50.62659454
H     8.71999931  33.81000137  49.22000122
H    10.71000004  31.98999786  53.50999832
H     8.53999996  31.47000122  54.22000122
H     6.03999996  31.55999947  53.82999802
H     6.67999983  33.15999985  49.86999893
H    14.96000099  34.59000015  49.69999695
H     4.65999985  30.73999786  51.32999802
H     4.15999985  32.09999847  52.42000198
S    15.93000031  32.62000275  53.94000244
C    18.52000046  33.31999969  53.25000000
C    17.18000031  33.36999893  52.94000244
C    16.62999916  33.97000122  51.77000046
C    17.45000076  34.50000000  50.79000092
C    18.81999969  34.27000046  51.03000259
C    19.76000023  34.84000015  50.12000275
C    21.11999893  34.86999893  50.27999878
C    21.65999985  34.36999893  51.50000000
C    20.81999969  33.87000275  52.45999908
C    19.40999985  33.75999832  52.23999786
C    15.19000053  33.77000046  51.63000107
C    14.68000031  33.09999847  52.77000046
C    13.31999969  32.81999969  52.84999847
C    23.12999916  34.52999878  51.83000183
H    23.49258423  33.98968124  52.70446777
H    18.78000069  33.02000046  54.26000214
H    16.97999954  34.97999954  49.93000031
H    19.26000023  35.31999969  49.27999878
H    21.78999901  35.43999863  49.65000153
H    21.22999954  33.48999786  53.39000320
H    12.96000004  32.31999969  53.74000168
H    23.31000137  35.59999847  51.93000031
H    23.61000061  34.10000229  50.93000031
