96

S    15.11999989  36.91999817  57.57999802
C    17.84000015  37.13999939  56.90999985
C    16.55999947  36.81999969  56.53999710
C    16.23999977  36.41999817  55.20000076
C    17.25000000  36.31999969  54.26000214
C    18.56999969  36.63999939  54.62999725
C    19.55999947  36.65999985  53.60000229
C    20.82999992  37.04999924  53.94000244
C    21.14999962  37.52000046  55.24000168
C    20.20999908  37.52999878  56.24000168
C    18.88000107  37.09999847  55.94999695
C    14.78999996  36.34999847  55.01999664
C    14.04999924  36.67000198  56.18999863
C    12.69999981  36.97000122  56.20999908
C    22.56000137  38.06000137  55.40000153
H    23.05154800  37.58269882  56.24774170
H    17.94000053  37.45999908  57.95000076
H    16.93000031  36.15000153  53.22999954
H    19.22999954  36.34999847  52.60000229
H    21.63000107  37.00999832  53.22000122
H    20.40999985  37.92000198  57.22999954
H    12.22000027  37.27999878  57.12999725
H    23.21000099  37.86000061  54.54000092
H    22.62000084  39.15000153  55.52000046
S    11.61999893  36.04000092  52.52999878
C     8.93000031  35.72999954  53.27999878
C    10.19999981  36.12999725  53.59000397
C    10.52000046  36.48999786  54.93999863
C     9.55999947  36.54000092  55.93999863
C     8.22000027  36.19999695  55.63999939
C     7.17999983  36.37000275  56.59999847
C     5.89999962  36.00000000  56.26999664
C     5.64000034  35.36999893  55.01999664
C     6.61000013  35.33000183  54.05000305
C     7.94000053  35.77999878  54.29000092
C    11.96000004  36.68999863  55.05000305
C    12.71000004  36.40000153  53.88999939
C    14.07999992  36.13999939  53.83999634
C     4.19999981  35.00000000  54.75000000
H     3.80084991  35.57734299  53.91606140
H     8.88000011  35.18000031  52.34000397
H     9.80000019  36.74000168  56.97999954
H     7.28999996  36.65999985  57.63999939
H     5.09000015  36.22000122  56.97000122
H     6.44999981  34.99000168  53.02999878
H    14.50000000  35.75999832  52.90999985
H     3.55999994  35.05000305  55.63999939
H     4.17000008  33.94000244  54.47000122
S    12.05000019  33.77999878  49.86999893
C     9.35999966  33.34999847  50.48999786
C    10.69000053  33.11000061  50.79000092
C    11.05999947  32.40999985  51.97999954
C    10.07999992  31.94999886  52.83000183
C     8.71000004  32.09999847  52.50000000
C     7.69000006  31.61999893  53.36999893
C     6.37000036  31.73000145  53.01000214
C     5.98999977  32.45999908  51.84999847
C     6.94999981  32.99000168  51.02000427
C     8.32999992  32.80999756  51.30000305
C    12.51000023  32.45999908  52.09999847
C    13.17999935  33.22999954  51.11000061
C    14.48999977  33.68999863  51.13999939
C     4.51999998  32.65000153  51.53999710
H     4.15723991  32.21611023  50.60820007
H     9.19999981  33.84999847  49.54000092
H    10.34999943  31.65999985  53.85000229
H     7.88000011  31.34000015  54.40000153
H     5.66999960  31.22999954  53.68000031
H     6.71999979  33.62999725  50.18000031
H    14.93999958  34.18000031  50.27999878
H     4.01999998  32.23999786  52.43000031
H     4.34999990  33.72999954  51.56000137
S    15.81999969  31.87999916  54.43999863
C    18.50000000  32.56000137  53.87000275
C    17.14999962  32.72000122  53.61999893
C    16.61999893  33.40999985  52.49000168
C    17.47999954  33.95000076  51.53999710
C    18.86999893  33.81999969  51.76000214
C    19.77000046  34.26000214  50.75000000
C    21.11999893  34.18999863  51.00000000
C    21.60000038  33.67000198  52.22999954
C    20.76999855  33.11999893  53.18000031
C    19.37999916  33.11000061  52.90000153
C    15.19999981  33.22000122  52.25000000
C    14.60000038  32.42000198  53.27000046
C    13.28999996  31.97999954  53.15999985
C    23.09999847  33.61000061  52.42000198
H    23.38352394  33.52494049  53.46903992
H    18.75000000  32.00000000  54.75999832
H    17.10000038  34.40999985  50.63000107
H    19.40999985  34.70999908  49.82999802
H    21.87000084  34.47999954  50.27000046
H    21.11000061  32.76000214  54.15000153
H    12.75000000  31.54000092  53.99000168
H    23.50000000  34.52000046  51.95999908
H    23.57000160  32.78000259  51.86999893
