96

S    14.78000069  37.69000244  57.34000397
C    17.45000076  37.95999908  56.49000168
C    16.18999863  37.44999695  56.29000092
C    15.88000107  36.63999939  55.14999771
C    16.81999969  36.54000092  54.13999939
C    18.15999985  36.95000076  54.34999847
C    19.19000053  36.68000031  53.40999985
C    20.48999977  37.04000092  53.68000031
C    20.84000015  37.72999954  54.86999893
C    19.82999992  38.08000183  55.72999954
C    18.46999931  37.70999908  55.52999878
C    14.45000076  36.40999985  55.04000092
C    13.71999931  36.93000031  56.12999725
C    12.32999992  36.97000122  56.11999893
C    22.25000000  38.25000000  55.00999832
H    22.80541229  37.55217361  55.63661957
H    17.70000076  38.55999756  57.36000061
H    16.72999954  35.96999741  53.22000122
H    18.98999977  36.11999893  52.50000000
H    21.14999962  36.81999969  52.84000015
H    20.05000114  38.72999954  56.58000183
H    11.67000008  37.27000046  56.93999863
H    22.75000000  38.36000061  54.02999878
H    22.21999931  39.22999954  55.51000214
S    11.33999920  35.65000153  52.48000336
C     8.60999966  35.38999939  53.23999786
C     9.89000034  35.81000137  53.50000000
C    10.18000031  36.34999847  54.79000092
C     9.18000031  36.54000092  55.72000122
C     7.83999968  36.18000031  55.45000076
C     6.70000029  36.40000153  56.27999878
C     5.42000008  36.05999756  55.90999985
C     5.18000031  35.40999985  54.66999817
C     6.21999979  35.23999786  53.80000305
C     7.55000019  35.63000107  54.15000153
C    11.61000061  36.54000092  55.00000000
C    12.35000038  36.06999969  53.88000107
C    13.73000050  35.95999908  53.92000198
C     3.76999998  34.88999939  54.45999908
H     3.26213956  35.40501404  53.64456177
H     8.43999958  34.84000015  52.31999969
H     9.39000034  37.06000137  56.65000153
H     6.93000031  36.93000031  57.19999695
H     4.59999990  36.25999832  56.59999847
H     6.09000015  34.64999771  52.88999939
H    14.28999996  35.59999847  53.06000137
H     3.28000021  35.11000061  55.41999817
H     3.78999996  33.79000092  54.47000122
S    15.55999947  37.44999695  51.23000336
C    18.23999977  37.80999756  50.47000122
C    16.95999908  37.44999695  50.13999939
C    16.63999939  37.00999832  48.81999969
C    17.68000031  36.90000153  47.90999985
C    19.02000046  37.11000061  48.29999924
C    20.06999969  36.98999786  47.34000397
C    21.38000107  37.22999954  47.64999771
C    21.71999931  37.80999756  48.88999939
C    20.69000053  38.04000092  49.78000259
C    19.34999847  37.59000015  49.61000061
C    15.21000004  36.72000122  48.74000168
C    14.46000004  37.06999969  49.89999771
C    13.07999992  37.14999771  49.95999908
C    23.12000084  38.29000092  49.23999786
H    23.60288048  37.51597214  49.83649445
H    18.35000038  38.44000244  51.35000229
H    17.46000099  36.58000183  46.90000153
H    19.88000107  36.70000076  46.31000137
H    22.11999893  36.90000153  46.90999985
H    20.94000053  38.38999939  50.77999878
H    12.61999989  37.50999832  50.87999725
H    23.71000099  38.34000015  48.31999969
H    23.12000084  39.27000046  49.72999954
S    11.97999954  36.11000061  46.32999802
C     9.27999973  35.90999985  47.14000320
C    10.59000015  36.25999832  47.42000198
C    10.86999989  36.77000046  48.72000122
C     9.86999989  36.95999908  49.65000153
C     8.53999996  36.52000046  49.40000153
C     7.50999975  36.65000153  50.38000107
C     6.19000006  36.47999954  50.06000137
C     5.89999962  35.82999802  48.82999802
C     6.85999966  35.72999954  47.84999847
C     8.23000050  36.05999756  48.08000183
C    12.31999969  36.84999847  48.81999969
C    13.07999992  36.50000000  47.67000198
C    14.47000027  36.40999985  47.58999634
C     4.44000006  35.50000000  48.60000229
H     3.98517871  36.17512512  47.87512970
H     8.93999958  35.47000122  46.20999908
H    10.08999920  37.13999939  50.70000076
H     7.86999989  37.11999893  51.30000305
H     5.40000010  36.76000214  50.75000000
H     6.65000010  35.22999954  46.90999985
H    14.96000099  36.36000061  46.63000107
H     3.91999984  35.52999878  49.55999756
H     4.39000034  34.41999817  48.43000031
