96

S    14.86999989  37.44999695  57.36000061
C    17.59000015  37.40000153  56.60999680
C    16.28000069  37.11999893  56.32999802
C    15.92000008  36.48999786  55.08999634
C    16.90999985  36.19999695  54.16999817
C    18.29000092  36.41999817  54.41999817
C    19.29999924  36.32999802  53.41999817
C    20.59999847  36.70999908  53.63999939
C    20.93000031  37.31999969  54.87999725
C    19.93999863  37.52000046  55.81999969
C    18.59000015  37.13000107  55.63000107
C    14.47999954  36.32999802  54.95999908
C    13.80000019  36.93999863  56.04000092
C    12.42000008  37.13000107  55.97999954
C    22.36000061  37.61000061  55.26000214
H    22.63821793  37.09636688  56.18025970
H    17.73999977  38.06999969  57.44999695
H    16.57999992  36.11999893  53.13999939
H    19.02000046  36.04000092  52.41000366
H    21.37000084  36.40999985  52.93000031
H    20.15000153  37.97999954  56.77999878
H    11.90999985  37.45999908  56.88000107
H    23.02000046  37.47000122  54.38999939
H    22.39000130  38.68000031  55.47000122
S    11.31000042  35.81999969  52.35000229
C     8.64999962  35.70999908  53.04000092
C     9.90999985  36.15000153  53.39000320
C    10.31000042  36.75000000  54.61999893
C     9.31999969  36.84999847  55.58000183
C     8.01999950  36.36000061  55.31999969
C     7.03000021  36.56999969  56.32999802
C     5.75000000  36.08000183  56.16000366
C     5.36000013  35.58000183  54.89999771
C     6.28000021  35.52000046  53.87000275
C     7.64999962  35.86999893  54.02999878
C    11.76000023  36.79999924  54.79000092
C    12.42000008  36.19999695  53.68999863
C    13.80000019  36.02000046  53.77999878
C     3.94000006  35.13000107  54.66999817
H     3.43446302  35.66402054  53.86541367
H     8.56000042  35.16999817  52.09999847
H     9.42000008  37.20999908  56.59999847
H     7.32999992  37.26000214  57.11000061
H     5.09999990  36.15999985  57.02999878
H     6.01999998  35.22999954  52.84999847
H    14.40000057  35.75000000  52.91999817
H     3.49000001  35.36999893  55.63999939
H     3.88000011  34.03000259  54.59999847
S    15.29000092  37.93999863  51.36000061
C    18.02999878  37.84000015  50.79000092
C    16.75000000  37.45999908  50.47000122
C    16.36999893  36.84999847  49.22999954
C    17.36999893  36.68000031  48.27999878
C    18.71999931  36.95999908  48.59000397
C    19.76000023  36.52000046  47.72999573
C    21.07000160  36.72000122  48.09000015
C    21.40999985  37.43999863  49.27000046
C    20.42000008  37.78000259  50.15999603
C    19.04999924  37.61000061  49.82999802
C    14.93000031  36.76000214  49.00000000
C    14.22000027  37.36999893  50.06000137
C    12.84999943  37.59000015  50.06000137
C    22.86999893  37.73999786  49.52000046
H    23.34894943  37.33968353  50.41356277
H    18.30999947  38.15999985  51.79000092
H    17.19000053  36.32999802  47.27000427
H    19.40999985  36.12999725  46.77000046
H    21.81999969  36.37000275  47.38999939
H    20.59000015  38.25000000  51.12999725
H    12.35000038  37.81999969  50.98999786
H    23.38000107  37.43999863  48.59000397
H    23.09000015  38.81000137  49.45999908
S    11.75000000  35.95999908  46.59000015
C     9.06999969  35.95000076  47.28000259
C    10.34000015  36.38999939  47.57999802
C    10.71000004  36.90000153  48.86000061
C     9.67000008  37.02999878  49.77000427
C     8.34000015  36.61999893  49.54999924
C     7.27999973  36.84999847  50.47999954
C     5.97000027  36.59000015  50.13999939
C     5.69999981  36.08000183  48.83999634
C     6.71000004  35.70999908  47.97000122
C     8.05999947  36.02999878  48.27000046
C    12.15000057  37.09000015  48.95000076
C    12.86000061  36.52000046  47.85999680
C    14.23999977  36.34000015  47.85999680
C     4.26999998  35.63999939  48.62999725
H     3.85036135  36.05252838  47.71248627
H     8.84000015  35.45999908  46.33999634
H    10.01999950  37.38999939  50.73999786
H     7.50999975  37.27999878  51.45000076
H     5.10999966  36.84999847  50.73999786
H     6.40999985  35.50000000  46.95000076
H    14.68999958  35.93000031  46.97000122
H     3.74000025  35.89999771  49.55999756
H     4.30999994  34.56000137  48.47000122
