96

S    15.39999962  37.47999954  57.35000229
C    18.05999947  37.65999985  56.49000168
C    16.77000046  37.23999786  56.25000000
C    16.35000038  36.88999939  54.93000031
C    17.35000038  36.72000122  53.99000168
C    18.68999863  37.13999939  54.19000244
C    19.70999908  36.93000031  53.20999908
C    21.02999878  37.11000061  53.54000092
C    21.42999840  37.62000275  54.79999924
C    20.45999908  37.79000092  55.76000214
C    19.06999969  37.59000015  55.50000000
C    14.89999962  36.75000000  54.86999893
C    14.22999954  37.16999817  56.04999924
C    12.84999943  37.30999756  56.11999893
C    22.84000015  38.06999969  55.08999634
H    23.28872681  37.45032883  55.86636734
H    18.30000114  37.92000198  57.51999664
H    17.10000038  36.31999969  53.01000214
H    19.47999954  36.47000122  52.25999832
H    21.70999908  36.90999985  52.70999908
H    20.72999954  38.06999969  56.77000046
H    12.35999966  37.55000305  57.05999756
H    23.38999939  37.97000122  54.13999939
H    22.77000046  39.13000107  55.34999847
S    11.69999981  36.08000183  52.49000168
C     9.01000023  36.36000061  53.08000183
C    10.31000042  36.53000259  53.48999786
C    10.69000053  37.00000000  54.79000092
C     9.70000076  37.14999771  55.73999786
C     8.36000061  36.79999924  55.44000244
C     7.27999973  36.84000015  56.37000275
C     6.01000023  36.45000076  56.03000259
C     5.71000004  35.95999908  54.73999786
C     6.71999979  35.88000107  53.81000137
C     8.02999973  36.34999847  54.10999680
C    12.13000107  37.02999878  54.94999695
C    12.79999924  36.55999756  53.80000305
C    14.18000031  36.40000153  53.72000122
C     4.32999992  35.43000031  54.45000076
H     3.88084006  36.13582230  53.75130844
H     8.78999996  35.94000244  52.09999847
H     9.94000053  37.45999908  56.75000000
H     7.46999979  37.14999771  57.38999939
H     5.29999971  36.54999924  56.84999847
H     6.44999981  35.47999954  52.84000015
H    14.72000027  36.09999847  52.83000183
H     3.88000011  35.42000198  55.45000076
H     4.25000000  34.38999939  54.09999847
S    15.57999992  38.13000107  51.00999832
C    18.27000046  38.25000000  50.34999847
C    16.97999954  38.01000214  49.93000031
C    16.61000061  37.57999802  48.61999893
C    17.68000031  37.44999695  47.75000000
C    18.98999977  37.86000061  48.09999847
C    20.06000137  37.56000137  47.21000290
C    21.38000107  37.83000183  47.48000336
C    21.77000046  38.23999786  48.77999878
C    20.73999786  38.41999817  49.68000031
C    19.34999847  38.27000046  49.43000031
C    15.18000031  37.31999969  48.52000427
C    14.47000027  37.66999817  49.69999695
C    13.07999992  37.66999817  49.79999924
C    23.19000053  38.68000031  49.08000183
H    23.70294189  38.10293961  49.84941101
H    18.53999901  38.27000046  51.39999771
H    17.60000038  36.93000031  46.79000092
H    19.81999969  37.11000061  46.25999832
H    22.14999962  37.59999847  46.75000000
H    21.00000000  38.75000000  50.68000031
H    12.69000053  38.06999969  50.72999954
H    23.68000031  38.55999756  48.09999847
H    23.09000015  39.72999954  49.38000107
S    11.87000084  36.54999924  46.20999908
C     9.17000008  36.45999908  46.93999863
C    10.44999981  36.86999893  47.22999954
C    10.88000107  37.42000198  48.47999954
C     9.89000034  37.57999802  49.43000031
C     8.52000046  37.36000061  49.13000107
C     7.46999979  37.70999908  50.02999878
C     6.17000008  37.43000031  49.69999695
C     5.78999996  36.72999954  48.52000427
C     6.77999973  36.50000000  47.58999634
C     8.14999962  36.76000214  47.87000275
C    12.32999992  37.38999939  48.64999771
C    13.02000046  36.88000107  47.51999664
C    14.40000057  36.79999924  47.48000336
C     4.36999989  36.31000137  48.20999908
H     3.90875578  37.06927872  47.57844925
H     8.78999996  35.88999939  46.10000229
H    10.15999985  37.93999863  50.41999817
H     7.75000000  38.18000031  50.96000290
H     5.42000008  37.80999756  50.38000107
H     6.50000000  36.18000031  46.59000015
H    14.89999962  36.52000046  46.56000137
H     3.73000002  36.15000153  49.08000183
H     4.50000000  35.36000061  47.68000031
