96

S    14.96999931  37.57999802  57.08000183
C    17.64000130  37.90000153  56.29000092
C    16.38000107  37.40000153  56.03000259
C    16.05999947  36.79000092  54.77000427
C    17.11000061  36.54999924  53.90999603
C    18.45000076  36.84000015  54.22000122
C    19.60000038  36.70000076  53.39000320
C    20.86000061  37.11999893  53.73000336
C    21.07999992  37.79999924  54.95999908
C    20.03999901  37.88000107  55.86000061
C    18.71999931  37.52999878  55.45999908
C    14.61999989  36.61000061  54.64000320
C    13.89999962  36.88999939  55.84000015
C    12.51000023  36.84999847  55.91999817
C    22.42000198  38.44000244  55.21999741
H    22.93141365  38.02092743  56.08656311
H    17.88999939  38.45999908  57.18999863
H    16.84999847  36.29000092  52.88000107
H    19.44000053  36.15999985  52.45999908
H    21.68000031  36.90999985  53.04999924
H    20.07999802  38.27000046  56.86999893
H    12.03999996  37.11999893  56.86000061
H    23.02000046  38.16999817  54.34000015
H    22.30999947  39.52999878  55.24000168
S    11.35000038  35.47999954  52.41000366
C     8.61999989  35.51000214  53.11000061
C     9.92999935  35.81000137  53.43000031
C    10.31999969  36.36000061  54.68999863
C     9.31999969  36.54999924  55.63000107
C     8.00000000  36.08000183  55.47000122
C     6.96000004  36.25000000  56.44000244
C     5.66999960  36.04999924  56.00999832
C     5.32000017  35.45000076  54.77000427
C     6.34999990  35.13000107  53.90999603
C     7.67000008  35.61000061  54.15000153
C    11.76000023  36.53000259  54.78000259
C    12.46999931  36.11999893  53.62999725
C    13.85000038  36.27000046  53.52000427
C     3.88000011  35.11000061  54.47000122
H     3.49413872  35.56016922  53.55536652
H     8.30999947  35.15000153  52.12999725
H     9.61000061  37.06000137  56.55000305
H     7.27999973  36.70999908  57.36999893
H     4.82999992  36.31000137  56.65000153
H     6.07999992  34.54000092  53.04000092
H    14.32000065  35.89999771  52.62000275
H     3.16000009  35.38999939  55.25000000
H     3.81999993  34.02000046  54.38000107
S    15.38000011  38.20000076  51.52999878
C    18.07999992  38.09999847  50.89000320
C    16.79000092  37.79999924  50.52999878
C    16.48999977  37.20000076  49.26000214
C    17.50000000  36.95999908  48.34000015
C    18.84000015  37.26000214  48.68000031
C    19.88000107  37.13000107  47.71999741
C    21.18000031  37.42000198  48.04999924
C    21.45000076  38.09999847  49.27000046
C    20.45000076  38.27999878  50.20999908
C    19.10000038  37.95999908  49.92000198
C    15.05000019  37.13999939  49.06000137
C    14.35999966  37.56000137  50.21999741
C    12.97999954  37.43000031  50.24000168
C    22.86999893  38.43000031  49.65999985
H    23.31828690  37.64727783  50.27194977
H    18.34000015  38.52000046  51.86000061
H    17.32999992  36.48999786  47.37999725
H    19.63999939  36.56999969  46.83000183
H    21.91999817  36.84999847  47.49000168
H    20.72000122  38.47999954  51.24000168
H    12.41000080  37.79000092  51.10000229
H    23.36999893  38.58000183  48.68999863
H    22.86999893  39.36999893  50.22999573
S    11.92999935  35.81999969  46.70999908
C     9.26000023  35.65999985  47.55000305
C    10.57000065  35.96999741  47.84999847
C    10.90000057  36.50000000  49.13999939
C     9.85000038  36.84999847  49.95999908
C     8.50000000  36.50000000  49.69999695
C     7.40000010  37.00999832  50.44000244
C     6.12999964  36.54000092  50.19000244
C     5.86000013  35.72000122  49.06000137
C     6.84999990  35.45999908  48.13999939
C     8.19000053  35.84000015  48.46000290
C    12.32999992  36.77000046  49.19000244
C    13.00000000  36.43000031  47.98999786
C    14.37999916  36.59000015  47.95999908
C     4.46000004  35.25000000  48.77999878
H     3.96079493  35.85617447  48.02405930
H     9.15000057  35.23999786  46.55000305
H    10.11999989  37.40000153  50.84999847
H     7.72000027  37.42000198  51.39999771
H     5.38999987  36.65000153  50.97999954
H     6.63999987  35.06000137  47.15000153
H    14.98000050  36.13999939  47.18000031
H     3.91000009  35.51000214  49.69999695
H     4.38000011  34.15999985  48.70999908
