96

S    14.86999989  37.34999847  57.36000061
C    17.59000015  37.29000092  56.72000122
C    16.28999901  37.04000092  56.35000229
C    15.93000031  36.70000076  55.00999832
C    16.95000076  36.55999756  54.08000183
C    18.30999947  36.70999908  54.43000031
C    19.34999847  36.63000107  53.44999695
C    20.65000153  36.93000031  53.81000137
C    20.89999962  37.40999985  55.12000275
C    19.95000076  37.56999969  56.10000229
C    18.61999893  37.16999817  55.75000000
C    14.50000000  36.47000122  54.86999893
C    13.78999901  36.90999985  56.02000427
C    12.39999962  37.02999878  55.98999786
C    22.29000092  37.95999908  55.34000015
H    22.80034447  37.25119019  55.99210358
H    17.80999947  37.86000061  57.62000275
H    16.79000092  36.54000092  53.00000000
H    19.04999924  36.32999802  52.44999695
H    21.42000008  37.04000092  53.06000137
H    20.13999939  37.95999908  57.09999847
H    11.89000034  37.40999985  56.86999893
H    22.84000015  38.09999847  54.40000153
H    22.23999977  38.93000031  55.84999847
S    11.26999950  35.65000153  52.44999695
C     8.53999996  35.66999817  53.22000122
C     9.86999989  35.88000107  53.50999832
C    10.25000000  36.40000153  54.79000092
C     9.34000015  36.67000198  55.79999924
C     7.96999979  36.41999817  55.54000092
C     6.91999960  36.53000259  56.50000000
C     5.63000011  36.18000031  56.18999863
C     5.28999996  35.72000122  54.88999939
C     6.25000000  35.61999893  53.90999603
C     7.59999990  35.95000076  54.23999786
C    11.69000053  36.54999924  54.87999725
C    12.39999962  36.09999847  53.74000168
C    13.78999901  36.02999878  53.75000000
C     3.88000011  35.36000061  54.45999908
H     3.42533112  36.09173203  53.79220963
H     8.23999977  35.09000015  52.35000229
H     9.73999977  37.09000015  56.72000122
H     7.23999977  36.70000076  57.51999664
H     4.94000006  36.22999954  57.02999878
H     6.02999973  35.11000061  52.97999954
H    14.28999996  35.75999832  52.81999969
H     3.26999998  35.19000244  55.34999847
H     3.88999987  34.40999985  53.92000198
S    11.50000000  33.81999969  49.65999985
C     8.89000034  33.18999863  50.20000076
C    10.19999981  33.01000214  50.56000137
C    10.69000053  32.40999985  51.76000214
C     9.78999996  31.98999786  52.71999741
C     8.42000008  32.13999939  52.38999939
C     7.44000006  31.70999908  53.33000183
C     6.10000038  31.80999947  53.02999878
C     5.63000011  32.50999832  51.88999939
C     6.56000042  32.95000076  50.97999954
C     7.95000029  32.70999908  51.14999771
C    12.13999939  32.50999832  51.86000061
C    12.71999931  33.31000137  50.84000015
C    14.04999924  33.72000122  50.79999924
C     4.19000006  32.97000122  51.77000046
H     3.74776220  32.48496628  50.89978790
H     8.48999977  33.75999832  49.36000061
H    10.13000011  31.56999969  53.66000366
H     7.73999977  31.28000069  54.27999878
H     5.32999992  31.55999947  53.75000000
H     6.21000004  33.51000214  50.11000061
H    14.45000076  34.11000061  49.86999893
H     3.63999987  32.69000244  52.67000198
H     4.03999996  34.04999924  51.65000153
S    15.40999985  32.18000031  54.20000076
C    18.09999847  32.79999924  53.63999939
C    16.77000046  32.90000153  53.31999969
C    16.22999954  33.55999756  52.15999985
C    17.21999931  34.04000092  51.31000137
C    18.60000038  33.88999939  51.55000305
C    19.52000046  34.02000046  50.47000122
C    20.88000107  33.87000275  50.61000061
C    21.35000038  33.32999802  51.84000015
C    20.48999977  33.06999969  52.88000107
C    19.10000038  33.32999802  52.77999878
C    14.80000019  33.41999817  51.93999863
C    14.21000004  32.63999939  52.97000122
C    12.93000031  32.09999847  52.94000244
C    22.81999969  33.08000183  52.11000061
H    23.26912117  33.47208786  53.02250290
H    18.46999931  32.06000137  54.34999847
H    16.97999954  34.36999893  50.30000305
H    19.11000061  34.18000031  49.47999954
H    21.50000000  34.01000214  49.72999954
H    20.82999992  32.56999969  53.79000092
H    12.58999920  31.50000000  53.77999878
H    23.45000076  33.47999954  51.31000137
H    22.81999969  31.97999954  52.09999847
