96

S    15.06999969  37.11000061  57.45999908
C    17.64000130  37.50000000  56.60999680
C    16.43000031  36.91999817  56.32999802
C    16.07999992  36.45999908  55.01999664
C    17.05000114  36.38000107  54.03999710
C    18.37000084  36.83000183  54.31000137
C    19.40999985  36.81000137  53.34000015
C    20.75000000  36.93000031  53.62999725
C    21.04000092  37.27000046  54.98000336
C    20.03999901  37.50000000  55.90000153
C    18.65999985  37.29000092  55.63999939
C    14.63000107  36.27999878  54.93999863
C    13.97999954  36.65999985  56.12999725
C    12.60000038  36.81000137  56.25999832
C    22.43000031  37.79000092  55.31000137
H    22.80722618  37.14942551  56.10715866
H    17.94999886  37.90999985  57.56999969
H    16.76000023  35.97999954  53.08000183
H    19.04999924  36.41999817  52.39999771
H    21.42999840  37.09000015  52.80000305
H    20.28000069  38.01000214  56.81999969
H    12.25000000  37.15999985  57.22999954
H    23.06999969  37.69000244  54.43000031
H    22.37999916  38.84999847  55.59000015
S    11.32999992  35.54000092  52.77999878
C     8.64000034  35.36999893  53.53000259
C     9.94000053  35.68000031  53.87000275
C    10.34999943  36.32999802  55.07999802
C     9.32999992  36.47000122  56.00000000
C     7.99000025  36.06999969  55.77000046
C     6.93000031  36.27000046  56.70000076
C     5.64000034  35.90999985  56.42000198
C     5.29999971  35.34000015  55.15999603
C     6.28000021  35.09999847  54.22000122
C     7.60999966  35.51000214  54.50000000
C    11.78999996  36.52000046  55.15999603
C    12.46999931  36.20999908  53.95999908
C    13.85000038  36.06999969  53.80000305
C     3.88000011  34.90999985  54.87999725
H     3.47311997  35.42395401  54.00913620
H     8.52999973  34.92000198  52.54000092
H     9.64999962  36.90999985  56.93999863
H     7.37999964  36.63999939  57.63000107
H     4.85000038  36.20999908  57.11000061
H     6.05999994  34.63999939  53.25000000
H    14.32999992  35.68000031  52.90999985
H     3.23000002  35.09000015  55.73999786
H     3.91000009  33.84000015  54.62999725
S    15.34999943  37.79000092  51.70999908
C    17.97999954  38.13999939  50.97999954
C    16.77000046  37.57999802  50.66999817
C    16.44000053  37.09999847  49.36000061
C    17.38999939  37.20999908  48.36000061
C    18.71000099  37.63000107  48.64999771
C    19.80999947  37.40000153  47.77999878
C    21.07000160  37.86999893  48.04999924
C    21.28999901  38.45000076  49.33000183
C    20.29999924  38.58000183  50.27000046
C    18.97999954  38.13000107  49.97000122
C    15.00000000  36.97999954  49.22000122
C    14.26000023  37.27999878  50.40000153
C    12.86999893  37.27999878  50.43000031
C    22.70999908  38.75000000  49.73999786
H    23.23632431  37.98896408  50.31610870
H    18.12999916  38.65000153  51.93000031
H    17.25000000  36.63000107  47.43999863
H    19.64999962  36.91999817  46.81999969
H    21.90999985  37.77000046  47.36999893
H    20.58000183  38.88000107  51.27999878
H    12.42000008  37.59000015  51.37000275
H    23.26999855  39.13999939  48.88000107
H    22.77000046  39.68000031  50.31999969
S    11.84000015  36.31000137  46.68000031
C     9.21000004  35.90999985  47.36000061
C    10.43000031  36.41999817  47.76000214
C    10.73999977  36.90000153  49.06999969
C     9.72999954  36.95999908  50.00999832
C     8.47000027  36.41999817  49.65000153
C     7.44000006  36.40000153  50.63000107
C     6.19000006  35.89999771  50.38000107
C     5.91000032  35.47999954  49.06000137
C     6.85999966  35.45999908  48.06000137
C     8.17000008  35.95000076  48.31999969
C    12.18000031  37.00999832  49.25000000
C    12.89000034  36.70999908  48.06000137
C    14.27000046  36.65000153  48.06999969
C     4.51999998  34.94999695  48.76999664
H     3.97149611  35.61960220  48.10752106
H     9.06000042  35.35000229  46.44000244
H     9.82999992  37.20000076  51.06999969
H     7.64999962  36.88999939  51.58000183
H     5.38999987  36.15999985  51.06999969
H     6.58999968  35.06000137  47.09000015
H    14.78999996  36.20999908  47.22000122
H     3.81999993  34.66999817  49.56999969
H     4.67999983  33.95999908  48.33000183
