96

S    15.03999901  37.13000107  57.25000000
C    17.71000099  37.37999725  56.47999573
C    16.45000076  36.93000031  56.18999863
C    16.04999924  36.43000031  54.91000366
C    17.11000061  36.40000153  54.02000046
C    18.45999908  36.77000046  54.23999786
C    19.55000114  36.63999939  53.34000015
C    20.81000137  37.02000046  53.74000168
C    21.05999947  37.69000244  54.97000122
C    20.06999969  37.70999908  55.93000031
C    18.78000069  37.26000214  55.56000137
C    14.60999966  36.44000244  54.68999863
C    13.94999981  36.72999954  55.90999985
C    12.56999969  36.81999969  56.02000427
C    22.49000168  38.04999924  55.30000305
H    22.96304703  37.23292160  55.84471893
H    17.71999931  37.93000031  57.42000198
H    16.77000046  35.96999741  53.08000183
H    19.32999992  36.27999878  52.34000397
H    21.63999939  36.79000092  53.06999969
H    20.27000046  38.18999863  56.88999939
H    12.05000019  37.04000092  56.95000076
H    23.08000183  38.36000061  54.43000031
H    22.44999886  38.95999908  55.91999817
S    11.26999950  35.79000092  52.50000000
C     8.56999969  35.81000137  53.18999863
C     9.85999966  36.17000198  53.50000000
C    10.29999924  36.55999756  54.80999756
C     9.35000038  36.76000214  55.79000092
C     8.00000000  36.41999817  55.50000000
C     7.03000021  36.34999847  56.52999878
C     5.69000006  36.12999725  56.27999878
C     5.23999977  35.79999924  54.97000122
C     6.19999981  35.70999908  53.99000168
C     7.57999992  35.96999741  54.20000076
C    11.75000000  36.67000198  54.88999939
C    12.46000099  36.25000000  53.74000168
C    13.82999992  36.11999893  53.55999756
C     3.81000018  35.43000031  54.65999985
H     3.38928628  36.09315872  53.90414429
H     8.38000011  35.43999863  52.18999863
H     9.67000008  36.95999908  56.79999924
H     7.31999969  36.34000015  57.57999802
H     5.09999990  35.95999908  57.16999817
H     6.06999969  35.45999908  52.94000244
H    14.21000004  35.93000031  52.56000137
H     3.24000001  35.47999954  55.59000015
H     3.86999989  34.36000061  54.40999985
S    15.70000076  37.83000183  51.33999634
C    18.35000038  37.97000122  50.54999924
C    17.05000114  37.63000107  50.21999741
C    16.73999977  37.13000107  48.90999603
C    17.76000023  36.84000015  48.02000046
C    19.05999947  37.30999756  48.29999924
C    20.13999939  37.15999985  47.37999725
C    21.42999840  37.50000000  47.68000031
C    21.73000145  38.13000107  48.92000198
C    20.72000122  38.29000092  49.84000397
C    19.38999939  37.85000229  49.59999847
C    15.29000092  37.02000046  48.81999969
C    14.61999989  37.34000015  50.01999664
C    13.22999954  37.36999893  50.11000061
C    23.15999985  38.38999939  49.33000183
H    23.53775978  37.79841614  50.16392517
H    18.61999893  38.41999817  51.50000000
H    17.50000000  36.45999908  47.04000092
H    19.84000015  36.76000214  46.42000198
H    22.29000092  37.20000076  47.08000183
H    20.89999962  38.84999847  50.75000000
H    12.75000000  37.63000107  51.04000092
H    23.81000137  38.32999802  48.44999695
H    23.23999786  39.43000031  49.68000031
S    12.02000046  36.37000275  46.47999573
C     9.31999969  36.38000107  47.14000320
C    10.62000084  36.61000061  47.54000092
C    11.00999928  37.09999847  48.82999802
C     9.96999931  37.43000031  49.68000031
C     8.60999966  37.22999954  49.34999847
C     7.60999966  37.20999908  50.35999680
C     6.32000017  36.77999878  50.12000275
C     5.96000004  36.25999832  48.85000229
C     6.94000006  36.22000122  47.88999939
C     8.28999996  36.61999893  48.08000183
C    12.46000099  37.07999802  48.96999741
C    13.17000008  36.70999908  47.80000305
C    14.55000019  36.55999756  47.72999573
C     4.55000019  35.77000046  48.61000061
H     4.07410145  36.38085556  47.84288025
H     9.13999939  36.02000046  46.12999725
H    10.31000042  37.66999817  50.68999863
H     7.86999989  37.36000061  51.39999771
H     5.60999966  36.86999893  50.93999863
H     6.69000053  35.84000015  46.90000153
H    15.01000023  36.31000137  46.77999878
H     4.11000013  35.86000061  49.61000061
H     4.57999992  34.71999741  48.26000214
