96

S    14.73999977  37.13999939  57.25999832
C    17.48999977  37.13999939  56.51000214
C    16.15999985  36.90000153  56.23000336
C    15.77999973  36.25000000  55.01999664
C    16.76000023  35.93000031  54.09999847
C    18.12999916  36.15999985  54.40999985
C    19.23999977  35.95000076  53.54000092
C    20.52999878  36.31999969  53.81000137
C    20.82999992  36.93999863  55.06000137
C    19.84000015  37.22999954  55.96000290
C    18.53999901  36.72999954  55.65999985
C    14.32999992  36.17000198  54.87999725
C    13.59000015  36.61000061  56.00999832
C    12.20999908  36.76000214  55.97000122
C    22.25000000  37.40999985  55.28999710
H    22.77503967  36.82110596  56.04208374
H    17.63000107  37.78000259  57.37999725
H    16.44000053  35.77999878  53.08000183
H    18.97999954  35.63000107  52.54000092
H    21.28999901  36.34999847  53.02999878
H    20.06999969  37.79000092  56.86000061
H    11.72000027  37.07999802  56.88999939
H    22.76000023  37.42000198  54.31000137
H    22.11999893  38.45999908  55.56999969
S    11.10000038  35.43999863  52.41000366
C     8.42000008  35.30999756  53.23999786
C     9.71000004  35.70999908  53.47000122
C    10.06000042  36.31000137  54.72999954
C     9.11000061  36.50000000  55.72000122
C     7.75000000  36.18999863  55.47000122
C     6.76999998  36.41999817  56.47999573
C     5.46000004  36.18999863  56.13999939
C     5.10999966  35.51000214  54.93000031
C     6.09000015  35.15000153  54.02999878
C     7.42000008  35.63000107  54.19000244
C    11.51000023  36.41999817  54.80999756
C    12.23000050  35.97999954  53.67000198
C    13.60000038  35.79000092  53.75000000
C     3.71000004  35.06999969  54.55999756
H     3.27524757  35.69005966  53.77602005
H     8.17000008  34.86000061  52.27000427
H     9.38000011  36.95999908  56.66999817
H     7.07999992  36.86000061  57.42000198
H     4.67999983  36.53000259  56.81000137
H     5.84999990  34.40999985  53.27000046
H    13.99000072  35.36000061  52.83000183
H     3.09999990  35.19000244  55.45999908
H     3.74000025  34.03000259  54.22000122
S    15.15999985  37.52000046  51.31000137
C    17.88999939  37.27999878  50.84000015
C    16.61000061  37.13000107  50.37000275
C    16.32999992  36.81999969  49.00000000
C    17.38999939  36.86000061  48.11999893
C    18.71000099  37.13999939  48.55999756
C    19.86999893  37.02000046  47.74000168
C    21.17000198  37.29999924  48.08000183
C    21.38000107  37.65999985  49.43999863
C    20.31999969  37.65000153  50.31999969
C    19.00000000  37.27999878  49.95999908
C    14.88999939  36.72000122  48.79000092
C    14.13000011  37.13000107  49.92000198
C    12.74000072  37.26000214  49.89999771
C    22.76000023  38.09000015  49.88999939
H    23.22086143  37.38098145  50.57774734
H    18.11000061  37.47000122  51.88999939
H    17.30999947  36.55999756  47.06999969
H    19.79999924  36.67000198  46.70999908
H    21.96000099  37.29000092  47.35000229
H    20.53999901  37.97999954  51.32999802
H    12.07999992  37.40999985  50.73999786
H    23.40999985  38.20999908  49.02000046
H    22.79000092  39.06999969  50.38999939
S    11.72999954  36.22000122  46.18000031
C     9.00000000  36.15999985  46.90999985
C    10.31000042  36.45000076  47.22000122
C    10.64000034  36.86000061  48.54999924
C     9.72999954  36.95000076  49.58000183
C     8.36999989  36.70000076  49.26000214
C     7.30999994  36.79999924  50.20000076
C     6.01000023  36.40000153  49.99000168
C     5.72000027  35.84999847  48.72000122
C     6.67000008  35.91999817  47.72999573
C     8.01999950  36.34999847  47.90999985
C    12.09000015  36.98999786  48.68999863
C    12.81000042  36.59000015  47.54000092
C    14.18000031  36.34000015  47.64999771
C     4.28000021  35.43999863  48.52000427
H     3.81733346  35.86707687  47.63026047
H     8.80999947  35.75999832  45.90999985
H    10.06000042  37.14999771  50.59999847
H     7.53000021  37.31999969  51.13999939
H     5.29999971  36.51000214  50.80999756
H     6.25000000  35.52999878  46.81000137
H    14.68999958  36.06999969  46.72999954
H     3.71000004  35.84000015  49.36999893
H     4.19000006  34.34999847  48.44999695
