96

S    14.98000050  37.16999817  57.25000000
C    17.69000053  37.36000061  56.45000076
C    16.39000130  36.95999908  56.19999695
C    16.01000023  36.56999969  54.86999893
C    16.95999908  36.45999908  53.87000275
C    18.30999947  36.77999878  54.15999985
C    19.36000061  36.51000214  53.23999786
C    20.69999886  36.65000153  53.52000427
C    21.01000023  37.29000092  54.75000000
C    20.06000137  37.55000305  55.70999908
C    18.71000099  37.16999817  55.47999954
C    14.56999969  36.41999817  54.72000122
C    13.89000034  36.79000092  55.90999985
C    12.51000023  36.93999863  55.94999695
C    22.46000099  37.55000305  55.11000061
H    22.91358948  36.97592545  55.91795731
H    17.93000031  37.76000214  57.43000031
H    16.65999985  35.94000244  52.95999908
H    19.10000038  36.13999939  52.25000000
H    21.44000053  36.37000275  52.77999878
H    20.36000061  37.85000229  56.70999908
H    12.05999947  37.22999954  56.88999939
H    22.95999908  37.44999695  54.15000153
H    22.59000015  38.59999847  55.37000275
S    11.31999969  35.68000031  52.36000061
C     8.63000011  35.56000137  53.11999893
C     9.92999935  35.88999939  53.43999863
C    10.31999969  36.44000244  54.71000290
C     9.28999996  36.63999939  55.61000061
C     7.94000053  36.25999832  55.40999985
C     6.88000011  36.40000153  56.33999634
C     5.59000015  36.04999924  56.02000427
C     5.29999971  35.47000122  54.75999832
C     6.30000019  35.29000092  53.82999802
C     7.63000011  35.70000076  54.12000275
C    11.76000023  36.59000015  54.80999756
C    12.43999958  36.24000168  53.61999893
C    13.81000042  36.02000046  53.61999893
C     3.82999992  35.30999756  54.45000076
H     3.35916066  35.90211487  53.66526794
H     8.32999992  35.12000275  52.16999817
H     9.59000015  37.04999924  56.56999969
H     7.11000013  36.70000076  57.36000061
H     4.77999973  36.27999878  56.70999908
H     6.15999985  34.93999863  52.81000137
H    14.28999996  35.65000153  52.70999908
H     3.26999998  35.47999954  55.38000107
H     3.68999982  34.25000000  54.19000244
S    11.77999973  33.65999985  49.65999985
C     9.17000008  33.15999985  50.40000153
C    10.51000023  32.93999863  50.66999817
C    11.02000046  32.31999969  51.84999847
C    10.06000042  31.87999916  52.74000168
C     8.67000008  32.00000000  52.50000000
C     7.67000008  31.47999954  53.36999893
C     6.32999992  31.51000023  53.09000015
C     5.86999989  32.26000214  51.97000122
C     6.80999994  32.72000122  51.06999969
C     8.21000004  32.68000031  51.31999969
C    12.43999958  32.56999969  52.04000092
C    12.94999981  33.29999924  50.93999863
C    14.32999992  33.51000214  50.84000015
C     4.41000032  32.63999939  51.84000015
H     4.10395432  32.39801025  50.82221985
H     8.86999989  33.74000168  49.52999878
H    10.25000000  31.22999954  53.59000397
H     7.99000025  30.95999908  54.27000046
H     5.65999985  31.02000046  53.77999878
H     6.47000027  33.29999924  50.20999908
H    14.73999977  34.09000015  50.02999878
H     3.88000011  32.16999817  52.68000031
H     4.35999966  33.72999954  51.84999847
S    15.80999947  32.15999985  54.26000214
C    18.47999954  32.68000031  53.41999817
C    17.13000107  32.86000061  53.29000092
C    16.60000038  33.22000122  52.00000000
C    17.43000031  33.61000061  50.96000290
C    18.81999969  33.68000031  51.18000031
C    19.73999977  34.15000153  50.20000076
C    21.07999992  34.22000122  50.47999954
C    21.59000015  33.63999939  51.66999817
C    20.76999855  33.02000046  52.57999802
C    19.36000061  33.11999893  52.38999939
C    15.14999962  33.13999939  51.90999985
C    14.55999947  32.55000305  53.06000137
C    13.22000027  32.19000244  53.13999939
C    23.02000046  33.97999954  52.02000046
H    23.33963394  33.49699783  52.94338608
H    18.82999992  32.29000092  54.36999893
H    17.13999939  33.80000305  49.93000031
H    19.47000122  34.33000183  49.15999985
H    21.67000008  34.86000061  49.82999802
H    21.18000031  32.65000153  53.50999832
H    12.84999943  31.65999985  54.01000214
H    23.19999886  35.06000137  52.09999847
H    23.71999931  33.65999985  51.24000168
