96

S    15.07999992  37.22999954  57.36999893
C    17.79000092  37.20000076  56.72000122
C    16.50000000  36.93000031  56.35000229
C    16.11999893  36.45000076  55.05000305
C    17.13999939  36.22999954  54.15000153
C    18.48999977  36.50000000  54.50000000
C    19.55999947  36.29000092  53.57999802
C    20.86999893  36.58000183  53.86000061
C    21.17000198  37.09999847  55.14999771
C    20.20000076  37.34999847  56.09000397
C    18.85000038  37.02000046  55.79000092
C    14.67000008  36.32999802  54.93999863
C    13.94999981  36.81000137  56.06999969
C    12.56999969  36.93999863  56.16000366
C    22.57999802  37.45999908  55.58000183
H    23.02706146  36.68651581  56.20446777
H    17.89999962  37.57999802  57.72999573
H    17.02000046  35.81000137  53.15000153
H    19.37000084  35.81999969  52.62000275
H    21.67000008  36.19999695  53.22999954
H    20.43999863  37.70999908  57.09000015
H    12.05999947  37.37999725  57.01000214
H    23.18000031  37.70000076  54.69999695
H    22.60000038  38.34999847  56.22000122
S    11.44000053  35.58000183  52.62000275
C     8.75000000  35.72999954  53.22999954
C    10.03999901  36.04999924  53.61000061
C    10.39999962  36.48999786  54.92000198
C     9.35999966  36.65000153  55.80999756
C     8.01000023  36.41999817  55.44000244
C     6.93000031  36.65000153  56.33999634
C     5.65000010  36.31000137  55.93999863
C     5.38000011  35.56999969  54.77000427
C     6.37000036  35.43000031  53.81999969
C     7.68000031  35.86999893  54.15000153
C    11.84999943  36.48999786  55.04000092
C    12.56000042  35.95000076  53.94000244
C    13.94000053  35.79000092  53.88000107
C     3.95000005  35.20000076  54.41999817
H     3.43733215  35.80523300  53.67235947
H     8.55000019  35.38999939  52.22000122
H     9.65999985  36.86000061  56.83000183
H     6.98000002  37.04000092  57.35000229
H     4.92000008  36.68999863  56.65000153
H     6.15000010  35.15000153  52.80000305
H    14.40000057  35.45000076  52.95000076
H     3.48000002  35.20000076  55.40999985
H     3.95000005  34.15999985  54.08000183
S    11.84999943  33.72999954  49.69999695
C     9.13999939  33.22000122  50.24000168
C    10.47000027  33.01000214  50.54000092
C    10.80999947  32.34000015  51.76000214
C     9.85000038  31.78999901  52.58999634
C     8.47999954  32.06000137  52.37999725
C     7.48000050  31.67000008  53.30999756
C     6.17000008  31.86000061  52.91999817
C     5.78000021  32.55000305  51.73999786
C     6.78999996  32.97000122  50.90000153
C     8.17000008  32.78000259  51.18000031
C    12.25000000  32.45999908  51.97000122
C    12.94999981  33.22999954  51.00999832
C    14.27999973  33.61999893  51.11999893
C     4.32000017  32.83000183  51.47999573
H     3.95760155  32.46049500  50.52070999
H     8.86999989  33.81999969  49.38000107
H    10.11999989  31.27000046  53.50999832
H     7.75000000  31.25000000  54.27999878
H     5.40999985  31.54000092  53.62999725
H     6.43000031  33.43000031  49.98000336
H    14.70999908  34.34000015  50.43000031
H     3.86999989  32.45999908  52.41000366
H     4.05999994  33.90000153  51.45000076
S    15.53999996  31.94000053  54.45999908
C    18.29000092  32.38999939  53.83999634
C    16.95000076  32.49000168  53.54000092
C    16.47999954  33.06999969  52.31999969
C    17.38999939  33.58000183  51.40999603
C    18.78000069  33.48999786  51.68000031
C    19.70999908  34.04999924  50.75000000
C    21.04000092  33.88999939  51.04000092
C    21.53000069  33.25999832  52.21000290
C    20.62000084  32.90000153  53.18999863
C    19.22000122  33.01000214  52.95999908
C    15.03000069  33.08000183  52.16999817
C    14.35999966  32.38999939  53.20999908
C    13.01000023  32.09999847  53.09000015
C    22.95999908  32.77000046  52.22999954
H    23.40072060  33.04011917  53.18963242
H    18.63000107  31.77999878  54.65999985
H    17.09000015  34.05999756  50.47999954
H    19.34999847  34.54999924  49.86000061
H    21.71999931  34.17000198  50.22999573
H    20.88999939  32.25000000  54.02000046
H    12.53999901  31.57999992  53.92000198
H    23.40999985  33.29000092  51.38000107
H    22.93999863  31.68999863  52.04000092
