96

S    15.24000072  37.36000061  57.25999832
C    18.00000000  37.27999878  56.60999680
C    16.69000053  36.90999985  56.35000229
C    16.31000137  36.29000092  55.12000275
C    17.28999901  36.06999969  54.16999817
C    18.63999939  36.40999985  54.38999939
C    19.70000076  36.18000031  53.46000290
C    21.02000046  36.47000122  53.70999908
C    21.38000107  37.09000015  54.93999863
C    20.35000038  37.47000122  55.77000046
C    18.98999977  37.06000137  55.63000107
C    14.86999989  36.05999756  55.01999664
C    14.14000034  36.55999756  56.12999725
C    12.76000023  36.72000122  56.05999756
C    22.79999924  37.42000198  55.31000137
H    23.13298988  36.86737442  56.18853378
H    18.22999954  37.84000015  57.50999832
H    16.98999977  35.63999939  53.22000122
H    19.45000076  35.88000107  52.43999863
H    21.77000046  36.40999985  52.93000031
H    20.69999886  37.93999863  56.68000031
H    12.15000057  37.11999893  56.86000061
H    23.45000076  37.16999817  54.45999908
H    22.90999985  38.50000000  55.47000122
S    11.76000023  35.06000137  52.57999802
C     9.04999924  35.15999985  53.34000015
C    10.34999943  35.59999847  53.50000000
C    10.69000053  36.25999832  54.72000122
C     9.67000008  36.48999786  55.61999893
C     8.30000019  36.22000122  55.37000275
C     7.25000000  36.60000229  56.25999832
C     5.95000029  36.29000092  55.97000122
C     5.59999990  35.54000092  54.81999969
C     6.58999968  35.22000122  53.90999603
C     7.96000004  35.50000000  54.18000031
C    12.13000107  36.25000000  54.89999771
C    12.86000061  35.72000122  53.80000305
C    14.25000000  35.66999817  53.82999802
C     4.19999981  34.99000168  54.65000153
H     3.63165331  35.51572037  53.88273239
H     8.78999996  34.54999924  52.48000336
H     9.90999985  36.95999908  56.56999969
H     7.50000000  37.06000137  57.22000122
H     5.28999996  36.48999786  56.81000137
H     6.28000021  34.72999954  53.00000000
H    14.81999969  35.49000168  52.91999817
H     3.51000023  35.05000305  55.50000000
H     4.28999996  33.93000031  54.40000153
S    15.73999977  37.43999863  51.40999603
C    18.38999939  37.47999954  50.65000153
C    17.10000038  37.18000031  50.28999710
C    16.65999985  36.63000107  49.03999710
C    17.69000053  36.41999817  48.15000153
C    19.01000023  36.88000107  48.40999985
C    20.03000069  36.86999893  47.42000198
C    21.34000015  37.22999954  47.63999939
C    21.70999908  37.61000061  48.95999908
C    20.78000069  37.72999954  49.95999908
C    19.43000031  37.36999893  49.68999863
C    15.21000004  36.58000183  48.97999573
C    14.55000019  37.02000046  50.15999603
C    13.15999985  37.11000061  50.25000000
C    23.13999939  38.06999969  49.08000183
H    23.66024399  37.49987030  49.84967422
H    18.68000031  37.77000046  51.65999985
H    17.42000008  36.01000214  47.18000031
H    19.73999977  36.63999939  46.39999771
H    22.01000023  37.20000076  46.79000092
H    21.14999962  38.11999893  50.90999985
H    12.69000053  37.30999756  51.19999695
H    23.68000031  38.20000076  48.13000107
H    23.01000214  39.08000183  49.48999786
S    11.84000015  36.11000061  46.63999939
C     9.19999981  35.89999771  47.48000336
C    10.47999954  36.34000015  47.75000000
C    10.88000107  36.74000168  49.06999969
C     9.88000011  36.86000061  50.00999832
C     8.52999973  36.51000214  49.75999832
C     7.48000050  36.65000153  50.72000122
C     6.17999983  36.40999985  50.34999847
C     5.84000015  35.82999802  49.09999847
C     6.83000040  35.70000076  48.15999985
C     8.19000053  35.97999954  48.47000122
C    12.32999992  36.77000046  49.18000031
C    12.97999954  36.44000244  47.95999908
C    14.35999966  36.29000092  47.90999985
C     4.44000006  35.31999969  48.81999969
H     3.96285391  35.91821289  48.04374313
H     8.94999981  35.70999908  46.44000244
H    10.15999985  37.19000244  51.00999832
H     7.59999990  37.04000092  51.72999954
H     5.45000029  36.65000153  51.11999893
H     6.70000029  35.31999969  47.15000153
H    14.80000019  35.98999786  46.95999908
H     3.86000013  35.36999893  49.75000000
H     4.55000019  34.27000046  48.54999924
