96

S    15.19000053  37.34000015  57.61000061
C    17.92000008  37.65000153  56.84000015
C    16.62999916  37.26000214  56.58000183
C    16.28999901  36.68000031  55.31000137
C    17.28000069  36.30000305  54.43000031
C    18.60999870  36.72000122  54.68999863
C    19.63999939  36.61000061  53.72000122
C    20.95999908  36.91999817  53.96999741
C    21.30000114  37.52000046  55.20999908
C    20.32999992  37.68000031  56.17000198
C    18.96000099  37.40000153  55.90999985
C    14.85000038  36.51000214  55.15999603
C    14.09999943  36.74000168  56.33999634
C    12.71999931  36.88000107  56.38999939
C    22.75000000  37.79000092  55.54000092
H    23.01316261  37.26367569  56.45751190
H    18.20000076  37.90000153  57.85999680
H    17.17000008  36.09000015  53.36999893
H    19.32999992  36.22000122  52.75000000
H    21.63000107  36.81999969  53.11999893
H    20.59000015  37.95999908  57.18999863
H    12.18000031  37.11999893  57.29999924
H    23.51000023  37.65000153  54.75000000
H    22.86000061  38.84000015  55.80999756
S    11.67000008  36.11999893  52.65999603
C     8.93000031  35.96999741  53.22999954
C    10.19999981  36.27000046  53.63999939
C    10.52999973  36.65000153  54.99000168
C     9.48999977  36.83000183  55.87999725
C     8.15999985  36.54000092  55.51000214
C     7.13000011  36.59000015  56.50000000
C     5.86000013  36.18999863  56.13999939
C     5.58000040  35.77000046  54.80999756
C     6.54999971  35.70000076  53.83999634
C     7.88000011  36.06999969  54.18000031
C    11.97000027  36.63999939  55.24000168
C    12.71000004  36.31999969  54.08000183
C    14.09000015  36.13999939  54.03999710
C     4.13000011  35.51000214  54.47999954
H     3.75245786  36.22946930  53.75341034
H     8.65999985  35.56999969  52.25999832
H     9.67000008  37.00999832  56.93000031
H     7.31999969  36.70999908  57.56000137
H     5.05999994  36.22000122  56.86999893
H     6.30999994  35.42000198  52.81999969
H    14.63999939  35.77000046  53.18000031
H     3.51000023  35.61999893  55.38000107
H     4.03999996  34.52000046  54.02999878
S    15.19000053  37.70999908  51.36000061
C    17.88999939  37.84000015  50.72999954
C    16.62999916  37.43999863  50.34999847
C    16.26000023  37.06000137  49.02000046
C    17.23999977  37.09000015  48.04000092
C    18.56999969  37.43999863  48.37999725
C    19.64999962  37.40999985  47.44999695
C    20.95999908  37.56000137  47.85999680
C    21.27000046  38.11000061  49.13000107
C    20.22999954  38.22000122  50.01999664
C    18.89000130  37.84000015  49.72000122
C    14.81999969  36.98999786  48.82999802
C    14.13000011  37.52999878  49.93999863
C    12.75000000  37.59000015  50.01999664
C    22.67999840  38.50000000  49.52000046
H    23.17081261  37.90248489  50.28823090
H    18.22999954  37.88999939  51.76000214
H    17.12000084  36.63999939  47.05999756
H    19.42000008  36.97000122  46.49000168
H    21.76000214  37.50999832  47.12999725
H    20.38999939  38.69999695  50.97999954
H    12.18999958  37.85000229  50.91999817
H    23.36999893  38.44000244  48.66000366
H    22.72999954  39.56000137  49.79999924
S    11.65999985  36.34999847  46.38999939
C     8.93999958  36.37000275  47.04999924
C    10.24000072  36.61999893  47.42000198
C    10.60999966  37.06999969  48.73000336
C     9.63000011  37.29000092  49.68000031
C     8.30000019  36.88999939  49.36999893
C     7.30000019  36.98999786  50.38000107
C     5.98999977  36.74000168  50.01999664
C     5.56999969  36.31999969  48.74000168
C     6.57000017  36.15000153  47.81000137
C     7.92999983  36.52000046  48.02999878
C    12.05000019  37.16999817  48.88000107
C    12.76000023  36.84999847  47.69000244
C    14.14000034  36.74000168  47.63000107
C     4.13000011  35.95000076  48.43999863
H     3.67333913  36.42093277  47.56949234
H     8.73999977  35.97999954  46.04999924
H     9.98000050  37.62000275  50.65000153
H     7.48000050  37.40000153  51.37000275
H     5.35000038  37.07999802  50.83000183
H     6.34000015  35.61000061  46.90000153
H    14.65999985  36.43000031  46.72999954
H     3.55999994  36.19999695  49.34999847
H     3.98999977  34.86999893  48.34999847
