96

S    14.92000008  37.21999741  57.28000259
C    17.60000038  37.25000000  56.62000275
C    16.31999969  36.95000076  56.23000336
C    15.98000050  36.47999954  54.92000198
C    17.02000046  36.27999878  54.02999878
C    18.34000015  36.67000198  54.34999847
C    19.37000084  36.70000076  53.36000061
C    20.63999939  37.13000107  53.63999939
C    20.89999962  37.55000305  54.97000122
C    19.95000076  37.65000153  55.96000290
C    18.64999962  37.13999939  55.68000031
C    14.55000019  36.48999786  54.68999863
C    13.88000011  36.91999817  55.86999893
C    12.50000000  37.02999878  55.90000153
C    22.32999992  37.86000061  55.38000107
H    22.77858353  37.31885147  56.21308517
H    17.70000076  37.59000015  57.64999771
H    16.73999977  35.90999985  53.04999924
H    19.09000015  36.38999939  52.36000061
H    21.38999939  36.93999863  52.88000107
H    20.06000137  37.90000153  57.01000214
H    11.98999977  37.31999969  56.81000137
H    23.02999878  37.93000031  54.54000092
H    22.32000160  38.90999985  55.68999863
S    11.23000050  36.00000000  52.29999924
C     8.59000015  35.70999908  53.09999847
C     9.85000038  36.17000198  53.40999985
C    10.27999973  36.45999908  54.75000000
C     9.32999992  36.70000076  55.72000122
C     7.99000025  36.32999802  55.41999817
C     6.98000002  36.37000275  56.43000031
C     5.69000006  35.98999786  56.16000366
C     5.32000017  35.43999863  54.89999771
C     6.30000019  35.31999969  53.94000244
C     7.63000011  35.79999924  54.13999939
C    11.72999954  36.63999939  54.79999924
C    12.39999962  36.31000137  53.60000229
C    13.78000069  36.15999985  53.55999756
C     3.93000007  34.86000061  54.72000122
H     3.25461507  35.43585205  54.08726883
H     8.46000004  35.34000015  52.09000015
H     9.39000034  37.15999985  56.70000076
H     7.21000004  36.72000122  57.43000031
H     5.00999975  35.91999817  57.00000000
H     6.17000008  34.64999771  53.09000015
H    14.21000004  35.70999908  52.67000198
H     3.52999973  34.59999847  55.70000076
H     4.21000004  33.93000031  54.20999908
S    11.64999962  33.68999863  49.75000000
C     8.98999977  33.11000061  50.50000000
C    10.34000015  33.06999969  50.77000046
C    10.84000015  32.59999847  52.02999878
C     9.98000050  32.06000137  52.97000122
C     8.57999992  32.07999802  52.72999573
C     7.63999987  31.35999870  53.52000427
C     6.32999992  31.18999863  53.13000107
C     5.86000013  31.68999863  51.88000107
C     6.74000025  32.40999985  51.11000061
C     8.10999966  32.56000137  51.45999908
C    12.28999996  32.70999908  52.09999847
C    12.86999893  33.39999771  51.00000000
C    14.22000027  33.69999695  50.93000031
C     4.42000008  31.45000076  51.49000168
H     4.04392529  31.86155319  50.55336380
H     8.64999962  33.48999786  49.54000092
H    10.42000008  31.45999908  53.75999832
H     7.99000025  30.63999939  54.25000000
H     5.77000046  30.42000008  53.64999771
H     6.24000025  32.92000198  50.28999710
H    14.65000057  34.15999985  50.05000305
H     4.30000019  30.38000107  51.30000305
H     3.71000004  31.84000015  52.22999954
S    15.65000057  32.13999939  54.33000183
C    18.27999878  32.55000305  53.56999969
C    16.95000076  32.76000214  53.29000092
C    16.46000099  33.45999908  52.14000320
C    17.43999863  34.10000229  51.39999771
C    18.81999969  34.01000214  51.70000076
C    19.72999954  34.54999924  50.75000000
C    21.07999992  34.40999985  50.93999863
C    21.54000092  33.54999924  51.97000122
C    20.68000031  32.99000168  52.88999939
C    19.27000046  33.20000076  52.80000305
C    15.01999950  33.29000092  52.01000214
C    14.44000053  32.62000275  53.11999893
C    13.09000015  32.29999924  53.15999985
C    23.02999878  33.38000107  52.15999985
H    23.38424683  33.46501923  53.18731689
H    18.67000008  31.84999847  54.31000137
H    17.15999985  34.61000061  50.47999954
H    19.36000061  35.02999878  49.84000397
H    21.86000061  34.79000092  50.28999710
H    21.07999992  32.34999847  53.67000198
H    12.72999954  31.68000031  53.97999573
H    23.59999847  34.01000214  51.46999741
H    23.39999962  32.36999893  51.91999817
