96

S    15.19999981  37.34000015  57.12999725
C    17.82999992  37.57999802  56.27999878
C    16.59000015  37.00000000  56.10000229
C    16.23999977  36.37000275  54.86000061
C    17.27000046  36.11000061  53.96999741
C    18.55999947  36.67000198  54.12000275
C    19.60000038  36.38000107  53.18999863
C    20.88000107  36.72999954  53.54999924
C    21.18999863  37.43000031  54.75000000
C    20.15999985  37.93000031  55.51000214
C    18.85000038  37.43000031  55.31000137
C    14.80999947  36.09000015  54.84000397
C    14.09999943  36.55999756  55.97999954
C    12.72999954  36.79000092  55.98999786
C    22.56999969  37.99000168  55.00000000
H    23.01185036  37.34860611  55.76254654
H    18.05999947  38.27000046  57.09000015
H    17.07999992  35.40000153  53.18000031
H    19.29999924  35.81999969  52.29999924
H    21.54000092  36.34999847  52.77999878
H    20.29000092  38.59000015  56.37000275
H    12.27000046  37.16999817  56.90000153
H    23.16999817  38.01000214  54.08000183
H    22.46000099  39.01000214  55.40000153
S    11.46000004  35.33000183  52.52999878
C     8.76000023  35.47999954  53.18000031
C    10.06000042  35.77000046  53.52000427
C    10.47999954  36.41999817  54.72999954
C     9.52000046  36.83000183  55.63000107
C     8.18000031  36.43000031  55.41999817
C     7.21000004  36.52000046  56.45999908
C     5.92000008  36.09999847  56.25000000
C     5.47999954  35.63000107  54.99000168
C     6.44000006  35.47000122  54.02000046
C     7.81000042  35.84000015  54.15999985
C    11.92999935  36.41999817  54.89999771
C    12.60000038  35.81000137  53.81000137
C    13.97999954  35.68000031  53.79000092
C     4.05999994  35.25000000  54.61999893
H     3.58386731  35.91800690  53.90224838
H     8.56999969  34.88999939  52.29000092
H     9.64999962  37.18000031  56.65000153
H     7.37999964  36.81999969  57.49000168
H     5.26000023  36.11000061  57.11000061
H     6.09000015  34.97000122  53.11999893
H    14.48999977  35.34000015  52.88999939
H     3.63999987  35.15999985  55.63000107
H     4.07999992  34.18999863  54.34000015
S    11.68000031  33.59000015  49.45999908
C     8.97000027  33.31999969  50.15999603
C    10.29000092  33.02999878  50.40999985
C    10.67999935  32.20000076  51.52000046
C     9.75000000  31.77000046  52.44999695
C     8.38999939  31.97000122  52.14000320
C     7.39000034  31.35999870  52.95000076
C     6.06999969  31.59000015  52.64999771
C     5.65000010  32.44999695  51.59999847
C     6.60000038  32.93000031  50.72999954
C     7.97999954  32.76000214  51.00000000
C    12.11999989  32.20000076  51.73999786
C    12.75000000  32.99000168  50.75000000
C    14.07999992  33.34999847  50.86999893
C     4.19999981  32.72000122  51.27999878
H     3.79354811  32.19232559  50.41717911
H     8.59000015  33.95000076  49.36000061
H    10.01999950  31.05999947  53.22999954
H     7.71000004  30.65000153  53.70999908
H     5.26999998  31.11000061  53.20000076
H     6.32000017  33.48999786  49.84000397
H    14.63000107  33.93000031  50.13999939
H     3.67000008  32.36000061  52.16999817
H     4.15000010  33.81999969  51.30000305
S    15.43000031  31.78999901  54.19000244
C    18.09999847  32.43000031  53.67000198
C    16.77999878  32.49000168  53.27000046
C    16.28000069  33.02999878  52.04000092
C    17.25000000  33.67000198  51.30000305
C    18.63999939  33.54000092  51.52000046
C    19.69000053  33.95000076  50.63999939
C    21.00000000  33.87000275  51.03000259
C    21.40000153  33.20000076  52.22000122
C    20.43000031  32.77000046  53.09999847
C    19.05999947  32.92000198  52.75000000
C    14.84000015  32.83000183  51.93000031
C    14.19000053  32.11999893  52.97000122
C    12.84000015  31.80999947  52.87000275
C    22.82999992  32.80999756  52.48000336
H    23.27744865  33.32136917  53.33228683
H    18.45000076  31.87000084  54.52999878
H    16.79999924  34.34000015  50.56999969
H    19.48999977  34.43000031  49.68999863
H    21.77000046  34.13999939  50.31000137
H    20.69000053  32.14999771  53.95000076
H    12.32999992  31.34000015  53.69999695
H    23.38999939  33.04000092  51.56000137
H    22.95999908  31.73000145  52.62000275
