96

S    14.88000011  36.84999847  57.36000061
C    17.52000046  37.34000015  56.45000076
C    16.28999901  36.76000214  56.26999664
C    15.90000057  36.13999939  55.04000092
C    16.92000008  35.96999741  54.12000275
C    18.22999954  36.47000122  54.29000092
C    19.29999924  36.18999863  53.40000153
C    20.56999969  36.68000031  53.62999725
C    20.89999962  37.43999863  54.79000092
C    19.90999985  37.52999878  55.73999786
C    18.54999924  37.16999817  55.50000000
C    14.46000004  36.04999924  54.84000397
C    13.78999901  36.47999954  56.02000427
C    12.39999962  36.58000183  56.10000229
C    22.34000015  37.79999924  55.08999634
H    22.76223373  37.18453979  55.88436890
H    17.71000099  37.95000076  57.34000397
H    16.73999977  35.45999908  53.16999817
H    19.17000008  35.54999924  52.52999878
H    21.28999901  36.34999847  52.88999939
H    20.15000153  38.01000214  56.68000031
H    11.82000065  36.86999893  56.97000122
H    23.05999947  37.72000122  54.26000214
H    22.36000061  38.84000015  55.45999908
S    11.26000023  35.28000259  52.45999908
C     8.56000042  35.15999985  53.27000046
C     9.85999966  35.56000137  53.52000427
C    10.24000072  36.02000046  54.81999969
C     9.27999973  36.22999954  55.79000092
C     7.92000008  35.97999954  55.52999878
C     6.88000011  36.27999878  56.45000076
C     5.60999966  35.88000107  56.10000229
C     5.28999996  35.13999939  54.93000031
C     6.26999950  34.88999939  54.00000000
C     7.57000017  35.43000031  54.23999786
C    11.65999985  36.29000092  54.94999695
C    12.30999947  35.75000000  53.81000137
C    13.69999981  35.72999954  53.72000122
C     3.84000015  34.81999969  54.65999985
H     3.39812112  35.42580032  53.86889267
H     8.42000008  34.61999893  52.32999802
H     9.47000027  36.58000183  56.81000137
H     7.13999987  36.54999924  57.47000122
H     4.86999989  36.04999924  56.88000107
H     6.14000034  34.31999969  53.09000015
H    14.19000053  35.42000198  52.80000305
H     3.31999993  34.90999985  55.63000107
H     3.81999993  33.79000092  54.29000092
S    11.59999943  33.13000107  49.34999847
C     8.97000027  32.62000275  50.01999664
C    10.29999924  32.54000092  50.38999939
C    10.69000053  31.94000053  51.63000107
C     9.71000004  31.47000122  52.50000000
C     8.34000015  31.61999893  52.16999817
C     7.32999992  31.09000015  53.02999878
C     6.01999998  31.18999863  52.63000107
C     5.64000034  31.91999817  51.47999573
C     6.57999992  32.52000046  50.66999817
C     7.96000004  32.27999878  50.94999695
C    12.11999989  32.11999893  51.79000092
C    12.71000004  32.79999924  50.68999863
C    14.02999973  33.22999954  50.70999908
C     4.15999985  32.22999954  51.36000061
H     3.69852233  31.79692078  50.47254181
H     8.59000015  33.11000061  49.13000107
H     9.92999935  31.15999985  53.52000427
H     7.46999979  30.48999977  53.92000198
H     5.22000027  30.81999969  53.26000214
H     6.35999966  33.20000076  49.86000061
H    14.34000015  33.65000153  49.75999832
H     3.60000014  31.93000031  52.25999832
H     4.05000019  33.31000137  51.23000336
S    15.51000023  31.70000076  53.99000168
C    18.12999916  32.65000153  53.52000427
C    16.79000092  32.66999817  53.22000122
C    16.28000069  33.23999786  52.01000214
C    17.22999954  33.62999725  51.09000397
C    18.63000107  33.55999756  51.26999664
C    19.61000061  33.90000153  50.28999710
C    20.95000076  33.84000015  50.58000183
C    21.38000107  33.20999908  51.77999878
C    20.45999908  32.79999924  52.70999908
C    19.06999969  33.04999924  52.54000092
C    14.85999966  33.00000000  51.81999969
C    14.25000000  32.23999786  52.84999847
C    12.90999985  31.87000084  52.91999817
C    22.86999893  32.99000168  51.90999985
H    23.23239708  33.35950470  52.86928940
H    18.54999924  32.15999985  54.38999939
H    16.94000053  33.91999817  50.07999802
H    19.22999954  34.24000168  49.33000183
H    21.61999893  33.94000244  49.72999954
H    20.71000099  32.26000214  53.62999725
H    12.63000011  31.38999939  53.85000229
H    23.32999992  33.52999878  51.06999969
H    22.95999908  31.90000153  51.81999969
