96

S    15.19999981  37.34000015  57.12999725
C    17.82999992  37.57999802  56.27999878
C    16.59000015  37.00000000  56.10000229
C    16.23999977  36.37000275  54.86000061
C    17.27000046  36.11000061  53.96999741
C    18.55999947  36.67000198  54.12000275
C    19.60000038  36.38000107  53.18999863
C    20.88000107  36.72999954  53.54999924
C    21.18999863  37.43000031  54.75000000
C    20.15999985  37.93000031  55.51000214
C    18.85000038  37.43000031  55.31000137
C    14.80999947  36.09000015  54.84000397
C    14.09999943  36.55999756  55.97999954
C    12.72999954  36.79000092  55.98999786
C    22.56999969  37.99000168  55.00000000
H    23.01185036  37.34860611  55.76254654
H    18.05999947  38.27000046  57.09000015
H    17.07999992  35.40000153  53.18000031
H    19.29999924  35.81999969  52.29999924
H    21.54000092  36.34999847  52.77999878
H    20.29000092  38.59000015  56.37000275
H    12.27000046  37.16999817  56.90000153
H    23.16999817  38.01000214  54.08000183
H    22.46000099  39.01000214  55.40000153
S    11.46000004  35.33000183  52.52999878
C     8.76000023  35.47999954  53.18000031
C    10.06000042  35.77000046  53.52000427
C    10.47999954  36.41999817  54.72999954
C     9.52000046  36.83000183  55.63000107
C     8.18000031  36.43000031  55.41999817
C     7.21000004  36.52000046  56.45999908
C     5.92000008  36.09999847  56.25000000
C     5.47999954  35.63000107  54.99000168
C     6.44000006  35.47000122  54.02000046
C     7.81000042  35.84000015  54.15999985
C    11.92999935  36.41999817  54.89999771
C    12.60000038  35.81000137  53.81000137
C    13.97999954  35.68000031  53.79000092
C     4.05999994  35.25000000  54.61999893
H     3.58386731  35.91800690  53.90224838
H     8.56999969  34.88999939  52.29000092
H     9.64999962  37.18000031  56.65000153
H     7.37999964  36.81999969  57.49000168
H     5.26000023  36.11000061  57.11000061
H     6.09000015  34.97000122  53.11999893
H    14.48999977  35.34000015  52.88999939
H     3.63999987  35.15999985  55.63000107
H     4.07999992  34.18999863  54.34000015
S    15.15999985  37.49000168  51.39999771
C    17.86999893  37.61000061  50.68999863
C    16.59000015  37.19000244  50.38999939
C    16.27000046  36.70999908  49.08000183
C    17.25000000  36.58000183  48.11999893
C    18.60000038  36.84999847  48.47999954
C    19.64999962  36.65000153  47.54000092
C    20.94000053  36.98999786  47.87000275
C    21.24000168  37.43000031  49.18000031
C    20.27000046  37.63999939  50.13999939
C    18.92000008  37.38999939  49.77000427
C    14.82999992  36.65999985  48.86000061
C    14.11999893  37.06000137  50.01999664
C    12.75000000  36.97000122  50.17000198
C    22.62000084  37.95999908  49.48999786
H    23.25528717  37.28902054  50.06818390
H    18.02999878  38.09000015  51.65000153
H    17.00000000  36.25999832  47.11000061
H    19.31999969  36.38999939  46.53999710
H    21.67000008  36.98999786  47.05999756
H    20.59999847  38.20000076  51.00999832
H    12.18000031  37.20999908  51.05999756
H    23.11000061  38.01000214  48.50000000
H    22.60000038  38.93000031  50.00000000
S    11.64000034  36.36000061  46.38000107
C     8.94999981  35.96999741  47.11000061
C    10.22999954  36.34999847  47.44999695
C    10.55999947  36.65000153  48.81000137
C     9.50000000  36.84000015  49.68000031
C     8.14999962  36.68000031  49.27999878
C     7.07000017  36.74000168  50.20999908
C     5.77000046  36.47999954  49.84000397
C     5.45000029  36.09999847  48.50999832
C     6.48000002  36.00000000  47.60000229
C     7.83999968  36.17000198  47.97000122
C    11.98999977  36.63000107  49.03999710
C    12.68000031  36.48999786  47.81000137
C    14.06999969  36.48999786  47.70000076
C     4.05999994  35.58000183  48.22000122
H     3.61118603  36.08580780  47.36511612
H     8.80000019  35.75999832  46.05999756
H     9.70000076  37.09999847  50.72000122
H     7.39000034  36.79000092  51.25000000
H     4.92999983  36.59000015  50.51000214
H     6.30999994  35.63000107  46.59000015
H    14.40999985  36.19999695  46.70999908
H     3.38999987  35.75999832  49.08000183
H     4.11000013  34.48999786  48.13999939
