96

S    14.84000015  37.20000076  57.43000031
C    17.52000046  37.06999969  56.84999847
C    16.25000000  36.65999985  56.51000214
C    15.85000038  36.22999954  55.20000076
C    16.86000061  35.96999741  54.29999924
C    18.17000008  36.43000031  54.54000092
C    19.23999977  36.24000168  53.61999893
C    20.56999969  36.47000122  53.92000198
C    20.82999992  37.07999802  55.17000198
C    19.85999870  37.27000046  56.13999939
C    18.50000000  36.98999786  55.83000183
C    14.42000008  36.30000305  54.93000031
C    13.76000023  36.77000046  56.09000397
C    12.36999989  36.90999985  56.11999893
C    22.25000000  37.56000137  55.37000275
H    22.74307632  36.95973206  56.13462830
H    17.85000038  37.50000000  57.77999878
H    16.64999962  35.40000153  53.40000153
H    19.00000000  35.86999893  52.63000107
H    21.31000137  36.50000000  53.13000107
H    20.15999985  37.52999878  57.15000153
H    11.82000065  37.00999832  57.04000092
H    22.79999924  37.50000000  54.41999817
H    22.13000107  38.58000183  55.76000214
S    11.13999939  35.54000092  52.63999939
C     8.47000027  35.54000092  53.30999756
C     9.76000023  35.82999802  53.70999908
C    10.11999989  36.44000244  54.95999908
C     9.07999992  36.65000153  55.84999847
C     7.76000023  36.27999878  55.50000000
C     6.75000000  36.38000107  56.50000000
C     5.46999979  35.95000076  56.25000000
C     5.15999985  35.47000122  54.94999695
C     6.07999992  35.31999969  53.94000244
C     7.40999985  35.72999954  54.22000122
C    11.56000042  36.59000015  55.01999664
C    12.25999928  36.17000198  53.86000061
C    13.63999939  36.01000214  53.80000305
C     3.72000003  35.05000305  54.75000000
H     3.34979439  35.50563812  53.83160782
H     8.23999977  35.20999908  52.29999924
H     9.34000015  37.06000137  56.81999969
H     7.05999947  36.65999985  57.50000000
H     4.80999994  35.89999771  57.11000061
H     5.88000011  34.87999725  52.95999908
H    14.06000042  35.59999847  52.88999939
H     3.23000002  35.38000107  55.68000031
H     3.70000005  33.95999908  54.71000290
S    15.48999977  37.33000183  51.55000305
C    18.15000153  37.63000107  50.68999863
C    16.86000061  37.23999786  50.41999817
C    16.50000000  36.74000168  49.12000275
C    17.46999931  36.45999908  48.18999863
C    18.79999924  36.86000061  48.46000290
C    19.85000038  36.59000015  47.52999878
C    21.17000198  36.88999939  47.78999710
C    21.53000069  37.26000214  49.10999680
C    20.55000114  37.59999847  50.00999832
C    19.15999985  37.47999954  49.71000290
C    15.05000019  36.70999908  49.00000000
C    14.37000084  37.04999924  50.20000076
C    12.97999954  37.00000000  50.31999969
C    23.01000214  37.33000183  49.43000031
H    23.30789566  36.95408249  50.40879822
H    18.39999962  37.99000168  51.69000244
H    17.26000023  36.11999893  47.18000031
H    19.64999962  36.24000168  46.52000046
H    21.94000053  36.68999863  47.04999924
H    20.76000023  37.86000061  51.04000092
H    12.53000069  37.26000214  51.27999878
H    23.59000015  36.81000137  48.66000366
H    23.12000084  38.41999817  49.38000107
S    11.72000027  35.97999954  46.73999786
C     9.02999973  35.88000107  47.43000031
C    10.29999924  36.27999878  47.77000046
C    10.67999935  36.74000168  49.06999969
C     9.61000061  36.97000122  49.92000198
C     8.27999973  36.70000076  49.52999878
C     7.20000029  36.95000076  50.41999817
C     5.89999962  36.65999985  50.06999969
C     5.55000019  36.02999878  48.85000229
C     6.57000017  35.72000122  47.97999954
C     7.90999985  36.06999969  48.29000092
C    12.13000107  36.84000015  49.22999954
C    12.81999969  36.43000031  48.06000137
C    14.19999981  36.32999802  47.95000076
C     4.11999989  35.70000076  48.48999786
H     3.78576159  36.19780350  47.57973480
H     8.97999954  35.45000076  46.44000244
H     9.85999966  37.34000015  50.90999985
H     7.39000034  37.29000092  51.43000031
H     5.07999992  36.84999847  50.76000214
H     6.30000019  35.00999832  47.19999695
H    14.63999939  35.96999741  47.02999878
H     3.49000001  35.90999985  49.36000061
H     4.00999975  34.64999771  48.18999863
