96

S    14.85999966  37.26000214  57.19999695
C    17.57999992  37.31999969  56.53999710
C    16.28999901  37.04000092  56.16000366
C    15.95999908  36.54999924  54.86000061
C    17.02999878  36.37000275  54.00000000
C    18.37000084  36.72000122  54.29000092
C    19.47000122  36.63000107  53.39000320
C    20.75000000  36.90999985  53.80000305
C    21.01000023  37.57999802  55.02999878
C    19.96999931  37.59999847  55.93000031
C    18.64999962  37.18000031  55.63000107
C    14.52000046  36.40000153  54.72000122
C    13.78999901  36.75000000  55.89000320
C    12.39999962  36.76000214  55.91999817
C    22.40999985  37.93000031  55.45999908
H    22.86583138  37.14654160  56.06539917
H    17.85000038  37.65999985  57.54000092
H    16.87999916  35.84999847  53.06000137
H    19.22000122  36.32999802  52.36999893
H    21.57999992  36.79000092  53.11000061
H    20.20999908  37.97999954  56.91999817
H    11.92999935  36.84999847  56.90000153
H    23.02999878  38.20999908  54.59999847
H    22.39000130  38.81999969  56.11000061
S    11.38000011  35.79999924  52.18000031
C     8.60000038  36.04999924  52.75000000
C     9.92000008  36.20999908  53.11000061
C    10.31999969  36.60000229  54.43000031
C     9.34000015  36.77000046  55.38999939
C     7.96999979  36.81000137  55.05000305
C     6.97000027  36.91999817  56.04999924
C     5.65999985  36.60000229  55.77999878
C     5.29999971  36.22000122  54.45999908
C     6.25000000  36.13999939  53.46000290
C     7.62000036  36.41999817  53.70999908
C    11.75000000  36.53000259  54.69999695
C    12.46000099  36.09999847  53.54999924
C    13.85000038  35.96999741  53.56999969
C     3.86000013  35.90999985  54.10999680
H     3.44046926  36.48596573  53.28516006
H     8.38999939  35.77000046  51.72999954
H     9.59000015  36.95000076  56.43000031
H     7.26999998  37.27000046  57.04000092
H     4.90000010  36.65000153  56.55000305
H     6.01000023  35.70999908  52.49000168
H    14.39000034  35.70000076  52.67000198
H     3.30999994  35.88999939  55.05000305
H     3.95000005  34.84000015  53.86000061
S    15.27999973  37.85000229  51.25999832
C    17.98999977  37.84000015  50.65000153
C    16.69999886  37.59000015  50.22999573
C    16.36999893  37.09999847  48.93000031
C    17.43999863  36.83000183  48.09999847
C    18.77000046  37.19000244  48.41999817
C    19.89999962  36.98999786  47.56000137
C    21.21000099  37.23999786  47.88999939
C    21.44000053  37.88999939  49.13000107
C    20.38999939  38.15999985  49.97000122
C    19.05999947  37.72000122  49.72000122
C    14.93000031  37.20999908  48.70999908
C    14.21000004  37.50999832  49.88999939
C    12.82999992  37.69000244  49.92000198
C    22.84000015  38.34000015  49.51000214
H    23.19586754  37.82043457  50.39966965
H    18.27999878  38.46999741  51.47999573
H    17.17000008  36.41999817  47.12999725
H    19.64999962  36.70000076  46.55000305
H    22.00000000  37.14999771  47.15000153
H    20.72000122  38.55999756  50.91999817
H    12.34000015  38.04000092  50.81999969
H    23.57000160  38.23999786  48.69999695
H    22.78000069  39.41999817  49.68999863
S    11.72999954  36.17000198  46.38999939
C     9.03999996  36.25999832  46.97999954
C    10.31999969  36.52000046  47.39999771
C    10.65000057  37.11999893  48.66000366
C     9.61000061  37.52000046  49.47000122
C     8.27999973  37.18000031  49.10999680
C     7.20000029  37.38999939  50.01999664
C     5.92000008  37.02999878  49.68000031
C     5.60999966  36.38000107  48.46000290
C     6.63000011  36.15999985  47.56000137
C     7.96999979  36.51000214  47.88000107
C    12.09000015  37.29000092  48.79000092
C    12.77999973  36.91999817  47.61000061
C    14.17000008  36.90999985  47.56999969
C     4.23000002  35.86999893  48.13000107
H     3.58283329  36.44604874  47.46860886
H     8.96000004  35.81000137  45.98999786
H     9.78999996  37.95999908  50.44000244
H     7.28999996  37.78000259  51.03000259
H     5.09000015  37.23999786  50.35999680
H     6.50000000  35.54999924  46.66999817
H    14.68999958  36.52000046  46.70000076
H     3.65999985  35.72000122  49.05000305
H     4.36999989  34.87999725  47.67000198
