96

S    15.05000019  37.38999939  57.29999924
C    17.76000023  37.36000061  56.56000137
C    16.45000076  37.04000092  56.27999878
C    16.06999969  36.51000214  55.00000000
C    17.07999992  36.22000122  54.10999680
C    18.45000076  36.38999939  54.40999985
C    19.52000046  36.17000198  53.48999786
C    20.81999969  36.38000107  53.89999771
C    21.17000198  36.88000107  55.18000031
C    20.15000153  37.20999908  56.04000092
C    18.79999924  36.98999786  55.66999817
C    14.61999989  36.38999939  54.92000198
C    13.90999985  36.88000107  56.04000092
C    12.51999950  36.97000122  56.04999924
C    22.59000015  37.31999969  55.47000122
H    23.02497482  36.82798004  56.33995056
H    18.09000015  37.95999908  57.41000366
H    16.88999939  35.79000092  53.13000107
H    19.31999969  35.95999908  52.43999863
H    21.57999992  36.37000275  53.13000107
H    20.31999969  37.50999832  57.06999969
H    11.92999935  37.26000214  56.90999985
H    23.15999985  37.18000031  54.54000092
H    22.59000015  38.38000107  55.75000000
S    11.40999985  35.58000183  52.48000336
C     8.73999977  35.54000092  53.18000031
C    10.00000000  36.02999878  53.46000290
C    10.36999893  36.60000229  54.72000122
C     9.35999966  36.72999954  55.65000153
C     8.01999950  36.34999847  55.40000153
C     6.90999985  36.54000092  56.26999664
C     5.59000015  36.25000000  56.02000427
C     5.36000013  35.47999954  54.84000397
C     6.40999985  35.19000244  54.00000000
C     7.73999977  35.63999939  54.18000031
C    11.82000065  36.68000031  54.86999893
C    12.50000000  36.06999969  53.79000092
C    13.89000034  35.95000076  53.81000137
C     3.95000005  35.09999847  54.43999863
H     3.44475555  35.84719467  53.82801056
H     8.51000023  34.94999695  52.29999924
H     9.77999973  36.95999908  56.63000107
H     7.18999958  36.98999786  57.22000122
H     4.72000027  36.63999939  56.52999878
H     6.19000006  34.68000031  53.06000137
H    14.35999966  35.65999985  52.87000275
H     3.28999996  34.90999985  55.28999710
H     4.00000000  34.20000076  53.81999969
S    11.69999981  33.52000046  49.43000031
C     9.02000046  33.16999817  50.14999771
C    10.34999943  32.95999908  50.43000031
C    10.78999996  32.36000061  51.65999985
C     9.84000015  31.87999916  52.54000092
C     8.47000027  32.09999847  52.25999832
C     7.44999981  31.63000107  53.13999939
C     6.11999989  31.77999878  52.84000015
C     5.69000006  32.43999863  51.65999985
C     6.63000011  32.86999893  50.76000214
C     8.01000023  32.77000046  51.06999969
C    12.23000050  32.44999695  51.81000137
C    12.86000061  33.06000137  50.68999863
C    14.19999981  33.39999771  50.66999817
C     4.19000006  32.42000198  51.45000076
H     3.92050505  31.61860657  50.76207733
H     8.69999981  33.55999756  49.19000244
H    10.06999969  31.30000114  53.43000031
H     7.90000010  31.24000168  54.05000305
H     5.32000017  31.53000069  53.54000092
H     6.42000008  33.18000031  49.72999954
H    14.65000057  33.81000137  49.77000427
H     3.73000002  32.27999878  52.43999863
H     3.77999997  33.34999847  51.04999924
S    15.53999996  32.20000076  54.20000076
C    18.20999908  32.50000000  53.30999756
C    16.86000061  32.68000031  53.11999893
C    16.39000130  33.40999985  51.97999954
C    17.22999954  33.95000076  51.03000259
C    18.63000107  33.84999847  51.23000336
C    19.60000038  34.45000076  50.38999939
C    20.95999908  34.27000046  50.52999878
C    21.38999939  33.56999969  51.68000031
C    20.48999977  33.06000137  52.58999634
C    19.09000015  33.11999893  52.37999725
C    14.94999981  33.22000122  51.84000015
C    14.32999992  32.59000015  52.95000076
C    13.00000000  32.19000244  52.95000076
C    22.86000061  33.23999786  51.83000183
H    23.26626968  33.50371933  52.80647278
H    18.67000008  32.06999969  54.20000076
H    16.92000008  34.36999893  50.06999969
H    19.23999977  34.97000122  49.50000000
H    21.63999939  34.56999969  49.73999786
H    20.76999855  32.59000015  53.53000259
H    12.48999977  31.73999977  53.80000305
H    23.54000092  33.67000198  51.07999802
H    22.98999977  32.15999985  51.75000000
