96

S    15.11999989  37.27000046  57.50999832
C    17.81999969  37.50999832  56.81999969
C    16.54999924  37.11000061  56.46999741
C    16.22999954  36.45999908  55.24000168
C    17.28000069  36.30000305  54.36000061
C    18.56999969  36.84000015  54.58000183
C    19.67000008  36.75000000  53.68000031
C    20.89999962  37.27000046  54.00000000
C    21.15999985  37.86000061  55.26000214
C    20.15999985  37.88000107  56.20999908
C    18.86000061  37.40999985  55.86999893
C    14.78000069  36.36000061  55.08999634
C    14.01999950  36.77999878  56.20999908
C    12.64000034  36.61000061  56.25000000
C    22.60000038  38.22999954  55.54999924
H    23.09177971  37.67407227  56.34824753
H    17.86999893  38.04000092  57.77000046
H    17.01000023  35.73999786  53.47000122
H    19.62000084  36.29000092  52.70000076
H    21.70000076  37.30999756  53.26000214
H    20.43999863  38.25000000  57.18999863
H    12.02000046  37.00000000  57.04999924
H    23.16999817  38.13000107  54.62999725
H    22.53999901  39.27999878  55.86999893
S    11.80999947  35.19000244  52.61000061
C     9.06999969  34.97999954  53.15999985
C    10.31999969  35.38000107  53.54999924
C    10.57999992  35.91999817  54.86000061
C     9.52000046  36.22999954  55.70000076
C     8.25000000  35.72999954  55.35999680
C     7.09000015  35.82999802  56.18000031
C     5.82000017  35.38000107  55.89000320
C     5.68000031  34.61999893  54.69999695
C     6.75000000  34.47999954  53.83999634
C     8.02999973  35.02000046  54.13000107
C    12.00000000  36.11000061  55.11000061
C    12.76999950  35.84000015  53.95000076
C    14.15999985  35.89999771  53.92000198
C     4.40000010  33.95000076  54.25000000
H     3.87412333  34.62511444  53.57488632
H     8.78999996  34.63999939  52.15999985
H     9.70000076  36.72999954  56.65000153
H     7.13000011  36.50000000  57.02999878
H     4.99000025  35.63000107  56.53999710
H     6.75000000  33.84999847  52.95999908
H    14.80999947  35.52999878  53.13000107
H     3.63999987  33.72999954  55.00999832
H     4.61999989  33.04000092  53.68000031
S    11.87999916  33.68999863  49.65000153
C     9.26999950  32.88999939  50.19000244
C    10.59999943  32.80999756  50.50000000
C    11.13000011  32.04999924  51.59999847
C    10.24000072  31.47000122  52.48000336
C     8.85000038  31.48999977  52.23999786
C     7.92000008  30.82999992  53.09999847
C     6.58999968  30.69999886  52.75000000
C     6.12999964  31.37000084  51.59000015
C     7.00000000  32.11999893  50.83000183
C     8.39999962  32.20000076  51.06999969
C    12.57999992  32.16999817  51.72000122
C    13.12999916  33.00000000  50.70000076
C    14.45000076  33.41999817  50.68999863
C     4.69000006  31.00000000  51.32999802
H     4.19232559  31.77495003  50.74701309
H     8.82999992  33.48999786  49.38999939
H    10.54999924  31.14999962  53.47999954
H     8.27000046  30.17000008  53.88999939
H     5.92999983  29.96000099  53.18000031
H     6.57999992  32.70999908  50.01999664
H    14.75000000  34.13000107  49.92000198
H     4.69000006  30.17000008  50.61000061
H     4.23999977  30.61000061  52.25000000
S    15.82999992  32.06000137  54.22999954
C    18.42000008  32.79000092  53.50000000
C    17.07999992  32.80999756  53.20999908
C    16.61000061  33.34000015  51.97000122
C    17.56000137  33.90000153  51.13999939
C    18.95000076  33.88999939  51.40999603
C    19.90999985  34.43000031  50.50000000
C    21.22999954  34.48999786  50.89000320
C    21.68000031  33.95000076  52.11999893
C    20.79999924  33.31000137  52.95999908
C    19.43000031  33.22000122  52.58999634
C    15.18000031  33.09000015  51.83000183
C    14.68999958  32.29000092  52.90000153
C    13.36999989  31.84999847  52.83000183
C    23.11000061  34.29999924  52.50000000
H    23.49538994  33.59345245  53.23509598
H    18.78999901  32.52000046  54.47999954
H    17.20999908  34.43000031  50.26000214
H    19.51000023  35.07999802  49.72999954
H    21.98999786  35.07999802  50.40000153
H    21.17000198  32.88999939  53.88999939
H    12.81999969  31.40000153  53.63999939
H    23.03999901  35.31999969  52.88000107
H    23.81999969  34.38999939  51.66999817
