96

S    14.91000080  37.00999832  57.37999725
C    17.56999969  37.02000046  56.60999680
C    16.28999901  36.54999924  56.38000107
C    15.90999985  36.11999893  55.06999969
C    16.86000061  36.05999756  54.06000137
C    18.19000053  36.48999786  54.29000092
C    19.29999924  36.13999939  53.47000122
C    20.56999969  36.63000107  53.70999908
C    20.85000038  37.38999939  54.86999893
C    19.80999947  37.63999939  55.73999786
C    18.51000023  37.09999847  55.56000137
C    14.46000004  36.05999756  54.89999771
C    13.81000042  36.47000122  56.09000397
C    12.44999981  36.68999863  56.22000122
C    22.27999878  37.72999954  55.19000244
H    22.63548088  37.28920364  56.12136078
H    17.86999893  37.57999802  57.49000168
H    16.55999947  35.52999878  53.15999985
H    19.04999924  35.66999817  52.51999664
H    21.30000114  36.29000092  52.97999954
H    20.10000038  37.79999924  56.77999878
H    11.94000053  37.04999924  57.11000061
H    22.93000031  37.40000153  54.36999893
H    22.43999863  38.81999969  55.19000244
S    11.17000008  35.72999954  52.56999969
C     8.46000004  35.82999802  53.34000015
C     9.78999996  35.97999954  53.66000366
C    10.22999954  36.32999802  54.98000336
C     9.26000023  36.58000183  55.93999863
C     7.90000010  36.31999969  55.63999939
C     6.89000034  36.22000122  56.63000107
C     5.56999969  35.95000076  56.36000061
C     5.15999985  35.72999954  55.01999664
C     6.09000015  35.70000076  54.01000214
C     7.44999981  35.98999786  54.31000137
C    11.68000031  36.41999817  55.07999802
C    12.31999969  35.95000076  53.89999771
C    13.68999958  35.82999802  53.75000000
C     3.68000007  35.56999969  54.78000259
H     3.31070089  36.09554291  53.89936447
H     8.23000050  35.47999954  52.32999802
H     9.50000000  36.76000214  56.97999954
H     7.20000029  36.43000031  57.64999771
H     4.82999992  35.68999863  57.11999893
H     5.73999977  35.45000076  53.01000214
H    14.19999981  35.54000092  52.84000015
H     3.23000002  36.08000183  55.65000153
H     3.44000006  34.50000000  54.72999954
S    15.22999954  37.62000275  51.35000229
C    17.90999985  37.31999969  50.86999893
C    16.62999916  37.09999847  50.40000153
C    16.35000038  36.65999985  49.06999969
C    17.42000008  36.32999802  48.26000214
C    18.73999977  36.67000198  48.64999771
C    19.82999992  36.60000229  47.74000168
C    21.02999878  37.13000107  48.13000107
C    21.28999901  37.59999847  49.43999863
C    20.26000023  37.69000244  50.34999847
C    19.00000000  37.14999771  49.98000336
C    14.91000080  36.70999908  48.81999969
C    14.22000027  37.22999954  49.93999863
C    12.84000015  37.34000015  50.00999832
C    22.63999939  38.22999954  49.72000122
H    23.24481964  37.51844788  50.28212738
H    18.07999992  37.90999985  51.77000046
H    17.29999924  36.11000061  47.19999695
H    19.57999992  36.20999908  46.75000000
H    21.84999847  37.06999969  47.42000198
H    20.22999954  38.13000107  51.33999634
H    12.35999966  37.65000153  50.93999863
H    23.09000015  38.61000061  48.80000305
H    22.46999931  39.17000198  50.25000000
S    11.54000092  35.93000031  46.58000183
C     8.85000038  35.90999985  47.34000397
C    10.14000034  36.30000305  47.61000061
C    10.53999996  36.93000031  48.83999634
C     9.52000046  37.11999893  49.75000000
C     8.18000031  36.72999954  49.55999756
C     7.17000008  37.02000046  50.52000046
C     5.88000011  36.55999756  50.37000275
C     5.55999994  35.91999817  49.15000153
C     6.46000004  35.77999878  48.11000061
C     7.82000017  36.15999985  48.27999878
C    11.98999977  36.98999786  48.95000076
C    12.69000053  36.45999908  47.83000183
C    14.06000042  36.27999878  47.78999710
C     4.11999989  35.52000046  48.89999771
H     3.76305771  36.06969070  48.02906036
H     8.64999962  35.29999924  46.45999908
H     9.73999977  37.47000122  50.76000214
H     7.46999979  37.72999954  51.29000092
H     5.07000017  36.81000137  51.04999924
H     6.17999983  35.33000183  47.16999817
H    14.51000023  35.79000092  46.93000031
H     3.51999998  35.73999786  49.79000092
H     4.05999994  34.43000031  48.76999664
