96

S    14.73999977  37.22999954  57.30999756
C    17.51000023  37.11000061  56.77000046
C    16.21999931  36.83000183  56.39999771
C    15.93000031  36.29000092  55.11000061
C    17.00000000  36.04999924  54.27000046
C    18.35000038  36.32999802  54.59999847
C    19.45000076  36.13999939  53.73000336
C    20.72999954  36.44000244  54.13999939
C    21.00000000  36.86999893  55.45999908
C    19.93999863  37.27999878  56.24000168
C    18.60999870  36.91999817  55.89000320
C    14.48999977  36.15999985  54.88999939
C    13.73000050  36.77999878  55.91999817
C    12.35000038  36.95000076  55.90000153
C    22.42000198  37.27999878  55.80999756
H    22.78139305  36.76979446  56.70285034
H    17.70000076  37.70999908  57.65999603
H    16.76000023  35.77000046  53.25000000
H    19.29999924  35.84000015  52.70000076
H    21.54000092  36.32999802  53.41999817
H    20.03999901  37.99000168  57.04999924
H    11.87999916  37.49000168  56.72000122
H    23.03999901  37.04999924  54.93999863
H    22.40999985  38.36999893  55.98999786
S    11.31000042  35.22999954  52.50999832
C     8.59000015  35.38000107  53.06000137
C     9.88000011  35.65000153  53.46000290
C    10.21000004  36.27999878  54.69999695
C     9.22000027  36.65000153  55.58000183
C     7.92999983  36.11000061  55.34999847
C     6.83000040  36.32999802  56.22000122
C     5.52999973  36.02999878  55.87999725
C     5.19999981  35.51000214  54.59999847
C     6.24000025  35.31999969  53.72000122
C     7.59999990  35.54000092  54.06999969
C    11.65999985  36.43000031  54.79999924
C    12.39999962  35.73999786  53.81000137
C    13.78000069  35.56000137  53.83999634
C     3.77999997  35.13000107  54.26000214
H     3.38814521  35.77834320  53.47629166
H     8.34000015  35.00999832  52.06999969
H     9.30000019  37.27000046  56.46999741
H     7.00999975  36.84000015  57.15999985
H     4.67999983  36.34000015  56.49000168
H     6.07999992  35.05000305  52.68000031
H    14.25000000  35.12000275  52.97000122
H     3.16000009  35.22999954  55.15999603
H     3.84999990  34.11000061  53.85000229
S    15.50000000  37.38999939  51.77999878
C    18.11000061  37.65000153  51.04000092
C    16.87999916  37.14999771  50.68999863
C    16.53000069  36.56999969  49.43000031
C    17.59000015  36.47999954  48.54000092
C    18.88000107  36.97000122  48.82999802
C    20.00000000  36.72999954  47.98999786
C    21.27000046  36.95999908  48.47000122
C    21.54999924  37.61000061  49.69999695
C    20.50000000  37.83000183  50.56000137
C    19.18000031  37.56000137  50.11000061
C    15.07999992  36.50000000  49.31999969
C    14.39000034  36.97999954  50.45999908
C    13.01000023  37.15999985  50.52000046
C    22.93999863  38.09000015  50.05000305
H    23.47895622  37.33120346  50.61732483
H    18.27000046  37.86999893  52.09000015
H    17.45000076  35.86000061  47.65999603
H    19.85000038  36.31000137  47.00000000
H    21.98999786  36.86999893  47.64999771
H    20.69999886  38.29999924  51.52000046
H    12.53999901  37.44999695  51.45000076
H    23.45000076  38.20999908  49.09000015
H    23.11000061  39.08000183  50.50000000
S    11.92000008  35.95000076  46.84000015
C     9.22999954  35.86999893  47.51999664
C    10.50000000  36.25999832  47.85999680
C    10.85000038  36.79999924  49.13999939
C     9.86999989  37.04000092  50.07999802
C     8.52000046  36.81000137  49.71000290
C     7.40999985  37.02999878  50.56999969
C     6.07999992  36.79000092  50.27999878
C     5.84999990  36.09999847  49.06000137
C     6.86999989  35.82999802  48.18000031
C     8.22000027  36.13999939  48.47999954
C    12.28999996  36.95999908  49.34000015
C    12.96000004  36.47999954  48.18000031
C    14.32000065  36.20999908  48.18000031
C     4.44999981  35.65000153  48.72000122
H     4.05084991  35.97074509  47.75776291
H     8.97999954  35.40999985  46.56999969
H    10.14000034  37.40000153  51.06999969
H     7.51999950  37.26000214  51.63000107
H     5.23999977  36.91999817  50.96000290
H     6.67999983  35.38000107  47.19999695
H    14.77000046  35.86999893  47.25999832
H     3.78999996  35.93000031  49.54999924
H     4.40000010  34.56000137  48.74000168
