96

S    14.81999969  37.34000015  57.36000061
C    17.53000069  37.36000061  56.72000122
C    16.25000000  37.00000000  56.36000061
C    15.88999939  36.47000122  55.07999802
C    16.95999908  36.17000198  54.26000214
C    18.30999947  36.40999985  54.64000320
C    19.38999939  36.12999725  53.75000000
C    20.68000031  36.47999954  54.09999847
C    21.00000000  37.13000107  55.31999969
C    19.98999977  37.34999847  56.22000122
C    18.63999939  37.06000137  55.87999725
C    14.45000076  36.45999908  54.88999939
C    13.73000050  36.95999908  56.00999832
C    12.35000038  36.93999863  56.07999802
C    22.43999863  37.55000305  55.54999924
H    22.96005249  36.80197906  56.14841843
H    17.64999962  37.79000092  57.70000076
H    16.76000023  35.70999908  53.29999924
H    19.11000061  35.81999969  52.75000000
H    21.50000000  36.22999954  53.43999863
H    20.17000008  37.95000076  57.09999847
H    11.80999947  37.20999908  56.97999954
H    23.05999947  37.69000244  54.65999985
H    22.44999886  38.54000092  56.02000427
S    11.35000038  35.20000076  52.56000137
C     8.64999962  35.20000076  53.18999863
C     9.92999935  35.52000046  53.57999802
C    10.21999931  36.12999725  54.84000397
C     9.18000031  36.38999939  55.70999908
C     7.83999968  36.18000031  55.31000137
C     6.75000000  36.43000031  56.18000031
C     5.47999954  35.98999786  55.87999725
C     5.18000031  35.52999878  54.58000183
C     6.21000004  35.43000031  53.67000198
C     7.57999992  35.58000183  54.02999878
C    11.64999962  36.36000061  55.00999832
C    12.34000015  35.93000031  53.85000229
C    13.71000099  36.11999893  53.75000000
C     3.75000000  35.15000153  54.25000000
H     3.26426673  35.72859573  53.46425629
H     8.57999992  34.64999771  52.25000000
H     9.28999996  36.77999878  56.72000122
H     6.90000010  36.86000061  57.16999817
H     4.65000010  36.09999847  56.56999969
H     5.89999962  34.99000168  52.71999741
H    14.34000015  36.00000000  52.87000275
H     3.19000006  35.12000275  55.19000244
H     3.61999989  34.11999893  53.89999771
S    15.62000084  37.65000153  51.52999878
C    18.30999947  37.31999969  50.93000031
C    17.00000000  37.09999847  50.56000137
C    16.61000061  36.56999969  49.27999878
C    17.57999992  36.32999802  48.33000183
C    18.90999985  36.72000122  48.63999939
C    19.88000107  36.75000000  47.61000061
C    21.19999886  37.02999878  47.90999985
C    21.54999924  37.61000061  49.15999985
C    20.62999916  37.69000244  50.18000031
C    19.29999924  37.26000214  49.92000198
C    15.15999985  36.54000092  49.10999680
C    14.52999973  37.11000061  50.24000168
C    13.14000034  37.11999893  50.31999969
C    23.01000214  37.86000061  49.43999863
H    23.37319374  37.15497589  50.18775177
H    18.48999977  37.84000015  51.86999893
H    17.28000069  35.96999741  47.35000229
H    19.61000061  36.61000061  46.56000137
H    22.01000023  36.77999878  47.22999954
H    20.86999893  38.04999924  51.18000031
H    12.75000000  37.36000061  51.31000137
H    23.57999992  37.78000259  48.50999832
H    23.13999939  38.86000061  49.86999893
S    11.87000084  36.32999802  46.70000076
C     9.22999954  35.90999985  47.50000000
C    10.44999981  36.48999786  47.76000214
C    10.85000038  36.77000046  49.09999847
C     9.89000034  36.79000092  50.10000229
C     8.56000042  36.43000031  49.79000092
C     7.50999975  36.65999985  50.72000122
C     6.21000004  36.50000000  50.28999710
C     5.86999989  35.81000137  49.09000015
C     6.89000034  35.54000092  48.20999908
C     8.25000000  35.81999969  48.52000427
C    12.30000019  36.86000061  49.23999786
C    13.00000000  36.47000122  48.06999969
C    14.34999943  36.12999725  48.04000092
C     4.44999981  35.42000198  48.79000092
H     4.02328634  35.91072083  47.91523743
H     8.93999958  35.54999924  46.52000046
H    10.14000034  37.14999771  51.09000397
H     7.78999996  37.11000061  51.66999817
H     5.40999985  36.84999847  50.93999863
H     6.67999983  35.33000183  47.15999985
H    14.82999992  35.70999908  47.16999817
H     3.77999997  35.65000153  49.61999893
H     4.32999992  34.33000183  48.69999695
