96

S    15.34999943  37.47000122  57.06999969
C    18.00000000  37.66999817  56.38000107
C    16.77000046  37.14999771  56.05999756
C    16.46000099  36.63000107  54.75999832
C    17.52000046  36.53000259  53.88000107
C    18.85000038  36.90000153  54.20999908
C    19.95000076  36.72000122  53.33000183
C    21.22999954  37.02999878  53.73000336
C    21.42999840  37.80999756  54.89999771
C    20.38999939  38.02000046  55.77000046
C    19.10000038  37.47000122  55.51000214
C    15.01999950  36.53000259  54.61000061
C    14.28999996  37.00000000  55.72999954
C    12.89999962  37.09999847  55.79999924
C    22.86999893  38.06999969  55.30000305
H    23.17523384  37.38144684  56.08792877
H    18.19000053  38.25999832  57.28000259
H    17.35000038  36.08000183  52.90999985
H    19.78000069  36.22999954  52.36999893
H    22.06000137  36.54000092  53.22999954
H    20.52999878  38.61000061  56.68000031
H    12.44999981  37.14999771  56.79000092
H    23.54999924  38.02999878  54.43999863
H    22.92000008  39.11000061  55.63000107
S    11.73999977  35.56999969  52.31999969
C     9.06000042  35.45000076  53.13999939
C    10.36000061  35.82999802  53.40000153
C    10.73999977  36.41999817  54.65000153
C     9.78999996  36.65999985  55.61999893
C     8.45000076  36.27000046  55.38000107
C     7.40999985  36.53000259  56.31000137
C     6.09000015  36.29000092  56.02000427
C     5.68000031  35.68999863  54.79999924
C     6.69000053  35.36999893  53.92000198
C     8.06999969  35.65000153  54.13999939
C    12.18000031  36.61999893  54.69999695
C    12.88000011  36.13999939  53.55999756
C    14.26000023  35.98999786  53.55999756
C     4.26999998  35.19000244  54.58000183
H     3.75621343  35.81796265  53.85213470
H     8.76999950  34.93999863  52.22999954
H    10.05000019  36.97999954  56.63000107
H     7.73000002  36.91999817  57.27000427
H     5.32999992  36.40000153  56.79000092
H     6.44999981  34.93999863  52.95000076
H    14.88000011  35.54999924  52.78999710
H     3.76999998  35.13999939  55.54999924
H     4.26000023  34.17000198  54.19000244
S    15.67000008  37.68000031  51.18000031
C    18.35000038  37.50999832  50.59000015
C    17.06999969  37.26000214  50.17000198
C    16.69000053  36.88999939  48.83999634
C    17.73999977  36.68000031  47.97000122
C    19.09000015  36.93000031  48.30999756
C    20.17000008  36.93999863  47.37999725
C    21.45999908  37.25000000  47.77000046
C    21.77000046  37.72000122  49.06999969
C    20.73999786  37.66999817  49.99000168
C    19.38999939  37.37999725  49.64000320
C    15.24000072  36.91999817  48.66000366
C    14.56999969  37.33000183  49.82999802
C    13.19000053  37.27999878  50.04000092
C    23.19999886  38.06000137  49.41999817
H    23.58477974  37.50420761  50.27506256
H    18.63000107  37.78000259  51.60999680
H    17.50000000  36.60000229  46.90999985
H    19.93000031  36.59000015  46.38000107
H    22.29999924  37.13000107  47.09000015
H    21.01000023  37.78000259  51.03000259
H    12.76000023  37.34000015  51.03000259
H    23.78999901  37.84000015  48.52000427
H    23.28000069  39.13000107  49.62999725
S    11.98999977  36.18000031  46.38000107
C     9.36999989  35.93000031  47.15000153
C    10.65000057  36.27999878  47.54000092
C    11.02000046  36.83000183  48.80000305
C    10.00000000  37.02000046  49.72000122
C     8.65999985  36.70000076  49.40999985
C     7.57000017  36.83000183  50.33000183
C     6.30000019  36.41999817  50.01999664
C     5.98000002  35.98999786  48.69999695
C     7.00999975  35.82999802  47.78999710
C     8.36000061  36.13999939  48.11999893
C    12.46000099  37.04999924  48.87000275
C    13.10999966  36.68999863  47.65999603
C    14.47999954  36.51000214  47.55000305
C     4.55000019  35.59999847  48.40000153
H     4.11006451  36.08250809  47.52722549
H     9.13999939  35.54000092  46.16000366
H    10.25000000  37.40999985  50.70000076
H     7.73000002  37.09000015  51.37000275
H     5.52999973  36.37000275  50.77999878
H     6.81999969  35.43999863  46.79999924
H    14.98999977  36.22000122  46.63999939
H     3.93000007  35.77999878  49.27999878
H     4.63000011  34.50999832  48.36000061
