96

S    14.86999989  37.20999908  57.35000229
C    17.60000038  37.21999741  56.79999924
C    16.32999992  36.88999939  56.39999771
C    16.03999901  36.34000015  55.11000061
C    17.07999992  36.11999893  54.22000122
C    18.39999962  36.48999786  54.58000183
C    19.50000000  36.31999969  53.68999863
C    20.78000069  36.65000153  54.06000137
C    21.04000092  37.27999878  55.31000137
C    19.98999977  37.45999908  56.18999863
C    18.67000008  37.02000046  55.89000320
C    14.60000038  36.22000122  54.93000031
C    13.81999969  36.68000031  56.02000427
C    12.43000031  36.72000122  56.03000259
C    22.40999985  37.79000092  55.68000031
H    22.85184860  37.14860535  56.44254684
H    17.79000092  37.79999924  57.70000076
H    16.76000023  35.70000076  53.27000046
H    19.29999924  36.01000214  52.67000198
H    21.61999893  36.52000046  53.39000320
H    20.25000000  37.97999954  57.11000061
H    11.98999977  37.16999817  56.91999817
H    23.11000061  37.77000046  54.84000397
H    22.34000015  38.86000061  55.90999985
S    11.49000072  35.43999863  52.41000366
C     8.71999931  35.35000229  52.95999908
C    10.01000023  35.65999985  53.36000061
C    10.34000015  36.15999985  54.65999985
C     9.30000019  36.27999878  55.56000137
C     7.96000004  35.94000244  55.27000046
C     6.91999960  36.19999695  56.19999695
C     5.60999966  35.91999817  55.86999893
C     5.38000011  35.26000214  54.62999725
C     6.35999966  35.06000137  53.68999863
C     7.71000004  35.40999985  53.95000076
C    11.77000046  36.29000092  54.86999893
C    12.55000019  35.91999817  53.74000168
C    13.94000053  35.91999817  53.73000336
C     4.00999975  34.70999908  54.33000183
H     3.52094316  35.31246185  53.56452179
H     8.51000023  34.84000015  52.02999878
H     9.48999977  36.47999954  56.62000275
H     7.07999992  36.76000214  57.11000061
H     4.76999998  36.20999908  56.50000000
H     6.17999983  34.69000244  52.68000031
H    14.39000034  35.52999878  52.81999969
H     3.45000005  34.56000137  55.26000214
H     4.21000004  33.72000122  53.88999939
S    11.92999935  33.40999985  49.51000214
C     9.28999996  32.57999802  50.02999878
C    10.60999966  32.62000275  50.40000153
C    11.02000046  32.14999771  51.69000244
C    10.06999969  31.54999924  52.50000000
C     8.69000053  31.70000076  52.22000122
C     7.63999987  31.47999954  53.15999985
C     6.32000017  31.56999969  52.78999710
C     5.92000008  32.13000107  51.53999710
C     6.90999985  32.52999878  50.66999817
C     8.27000046  32.25000000  50.96000290
C    12.44999981  32.31999969  51.93999863
C    13.02999973  33.02999878  50.84999847
C    14.37000084  33.39999771  50.86999893
C     4.44999981  32.20000076  51.18999863
H     4.13771439  31.27024078  50.71447372
H     9.04999924  33.09000015  49.09999847
H    10.36999893  31.02000046  53.39000320
H     7.88000011  31.07999992  54.13999939
H     5.52999973  31.37000084  53.50000000
H     6.65000010  33.13000107  49.79999924
H    14.80999947  33.98999786  50.07999802
H     3.81000018  32.33000183  52.06999969
H     4.38000011  33.09999847  50.58000183
S    15.77000046  31.90999985  54.26000214
C    18.43000031  32.57999802  53.60000229
C    17.09000015  32.63000107  53.31999969
C    16.59000015  33.29000092  52.15000153
C    17.50000000  33.81999969  51.25000000
C    18.89000130  33.58000183  51.35000229
C    19.88000107  34.10000229  50.45999908
C    21.21000099  34.06999969  50.79000092
C    21.63999939  33.44000244  51.98999786
C    20.72999954  32.85000229  52.81999969
C    19.32999992  32.97999954  52.57999802
C    15.15999985  33.06999969  51.97999954
C    14.55000019  32.37999725  53.06000137
C    13.21000004  32.02000046  53.08000183
C    23.11000061  33.15999985  52.22000122
H    23.48045731  33.49483490  53.18889236
H    18.76000023  32.13999939  54.54000092
H    17.14999962  34.40999985  50.40999985
H    19.62000084  34.73999786  49.62999725
H    21.90999985  34.54999924  50.11000061
H    20.92000008  32.20000076  53.67000198
H    12.64999962  31.59000015  53.89999771
H    23.68999863  33.65000153  51.43000031
H    23.22000122  32.06999969  52.08000183
