96

S    14.88000011  37.34000015  57.45999908
C    17.53000069  37.56999969  56.70000076
C    16.23999977  37.27000046  56.31999969
C    15.88000107  36.95000076  54.97000122
C    16.90999985  36.79999924  54.06000137
C    18.25000000  37.06999969  54.41999817
C    19.34000015  36.68000031  53.60000229
C    20.65000153  36.86999893  54.00000000
C    20.95000076  37.43999863  55.26000214
C    19.93999863  37.70999908  56.14999771
C    18.59000015  37.47999954  55.76000214
C    14.42999935  36.84000015  54.88999939
C    13.75000000  37.13000107  56.10000229
C    12.38000011  37.33000183  56.14999771
C    22.39999962  37.72999954  55.56999969
H    22.88113785  36.89508820  56.07943726
H    17.70000076  37.79999924  57.74000168
H    16.81999969  36.44000244  53.04000092
H    19.18000031  36.22000122  52.63000107
H    21.44000053  36.59000015  53.29999924
H    20.22000122  38.01000214  57.15999985
H    11.92000008  37.50999832  57.11999893
H    22.93000031  38.18000031  54.72999954
H    22.36999893  38.52000046  56.32999802
S    11.18999958  35.81999969  52.69000244
C     8.51000023  35.73999786  53.40999985
C     9.78999996  36.11000061  53.74000168
C    10.17000008  36.65999985  55.00999832
C     9.19000053  36.77000046  55.97999954
C     7.83999968  36.44000244  55.66999817
C     6.76000023  36.72000122  56.56000137
C     5.45000029  36.38000107  56.31000137
C     5.13999987  35.81000137  55.05000305
C     6.15000010  35.52999878  54.15999985
C     7.49000025  35.95999908  54.36999893
C    11.59000015  36.97000122  55.06000137
C    12.28000069  36.54999924  53.88999939
C    13.66000080  36.47999954  53.76999664
C     3.72000003  35.43000031  54.69999695
H     3.34967661  36.00685120  53.85252762
H     8.21000004  35.52999878  52.37999725
H     9.42000008  37.26000214  56.91999817
H     7.05999947  37.15999985  57.50000000
H     4.76000023  36.58000183  57.12999725
H     5.84000015  35.11000061  53.20000076
H    14.15999985  36.25999832  52.83000183
H     2.99000001  35.59000015  55.50000000
H     3.61000013  34.38999939  54.36000061
S    11.39999962  33.79000092  49.66999817
C     8.82999992  33.06000137  50.21999741
C    10.14999962  32.95000076  50.61000061
C    10.62999916  32.43999863  51.86000061
C     9.68000031  31.94000053  52.72999573
C     8.30000019  32.02999878  52.42000198
C     7.35000038  31.68999863  53.41999817
C     6.01999998  31.77999878  53.09000015
C     5.59999990  32.31999969  51.84999847
C     6.50000000  32.83000183  50.93999863
C     7.88000011  32.57999802  51.16000366
C    12.06999969  32.59000015  52.00000000
C    12.57999992  33.38000107  50.93000031
C    13.88000011  33.84999847  51.00999832
C     4.15000010  32.73999786  51.72000122
H     3.64693689  32.27944946  50.86975479
H     8.63000011  33.59000015  49.29000092
H    10.01000023  31.70999908  53.74000168
H     7.82000017  31.45000076  54.36999893
H     5.36000013  31.90000153  53.95000076
H     6.15000010  33.45000076  50.12000275
H    14.28999996  34.52000046  50.26000214
H     3.52999973  32.59000015  52.61000061
H     4.19999981  33.79000092  51.42000198
S    15.34999943  32.21999741  54.33000183
C    18.04000092  32.68000031  53.55999756
C    16.69000053  32.79999924  53.31999969
C    16.21000099  33.48999786  52.15999985
C    17.09000015  34.13999939  51.31999969
C    18.47999954  33.98999786  51.51000214
C    19.47999954  34.56000137  50.66999817
C    20.82999992  34.36000061  50.84999847
C    21.28999901  33.61999893  51.97000122
C    20.36000061  33.11999893  52.84999847
C    18.95000076  33.22000122  52.63000107
C    14.75999928  33.43000031  52.02000046
C    14.18000031  32.70000076  53.09000015
C    12.89999962  32.14999771  53.02999878
C    22.70999908  33.13000107  52.04000092
H    23.17024994  33.58316803  52.91801453
H    18.39999962  32.25000000  54.48999786
H    16.75000000  34.70999908  50.45000076
H    19.19000053  34.99000168  49.72000122
H    21.48999977  34.63999939  50.04000092
H    20.65000153  32.49000168  53.68999863
H    12.46999931  31.61000061  53.87000275
H    23.05999947  33.61000061  51.11999893
H    22.84000015  32.04999924  51.90999985
