96

S    14.98000050  37.16999817  57.25000000
C    17.69000053  37.36000061  56.45000076
C    16.39000130  36.95999908  56.19999695
C    16.01000023  36.56999969  54.86999893
C    16.95999908  36.45999908  53.87000275
C    18.30999947  36.77999878  54.15999985
C    19.36000061  36.51000214  53.23999786
C    20.69999886  36.65000153  53.52000427
C    21.01000023  37.29000092  54.75000000
C    20.06000137  37.55000305  55.70999908
C    18.71000099  37.16999817  55.47999954
C    14.56999969  36.41999817  54.72000122
C    13.89000034  36.79000092  55.90999985
C    12.51000023  36.93999863  55.94999695
C    22.46000099  37.55000305  55.11000061
H    22.91358948  36.97592545  55.91795731
H    17.93000031  37.76000214  57.43000031
H    16.65999985  35.94000244  52.95999908
H    19.10000038  36.13999939  52.25000000
H    21.44000053  36.37000275  52.77999878
H    20.36000061  37.85000229  56.70999908
H    12.05999947  37.22999954  56.88999939
H    22.95999908  37.44999695  54.15000153
H    22.59000015  38.59999847  55.37000275
S    11.31999969  35.68000031  52.36000061
C     8.63000011  35.56000137  53.11999893
C     9.92999935  35.88999939  53.43999863
C    10.31999969  36.44000244  54.71000290
C     9.28999996  36.63999939  55.61000061
C     7.94000053  36.25999832  55.40999985
C     6.88000011  36.40000153  56.33999634
C     5.59000015  36.04999924  56.02000427
C     5.29999971  35.47000122  54.75999832
C     6.30000019  35.29000092  53.82999802
C     7.63000011  35.70000076  54.12000275
C    11.76000023  36.59000015  54.80999756
C    12.43999958  36.24000168  53.61999893
C    13.81000042  36.02000046  53.61999893
C     3.82999992  35.30999756  54.45000076
H     3.35916066  35.90211487  53.66526794
H     8.32999992  35.12000275  52.16999817
H     9.59000015  37.04999924  56.56999969
H     7.11000013  36.70000076  57.36000061
H     4.77999973  36.27999878  56.70999908
H     6.15999985  34.93999863  52.81000137
H    14.28999996  35.65000153  52.70999908
H     3.26999998  35.47999954  55.38000107
H     3.68999982  34.25000000  54.19000244
S    15.11000061  37.59000015  51.20999908
C    17.79000092  37.70999908  50.52000046
C    16.51000023  37.34999847  50.15999603
C    16.22999954  36.77000046  48.88000107
C    17.28000069  36.58000183  48.00000000
C    18.60999870  36.88999939  48.36999893
C    19.70999908  36.83000183  47.47000122
C    20.98999977  37.25000000  47.75000000
C    21.25000000  37.79000092  49.03999710
C    20.22000122  37.90000153  49.93999863
C    18.88000107  37.54000092  49.61999893
C    14.78000069  36.72000122  48.70999908
C    14.04999924  37.09999847  49.86999893
C    12.68000031  37.31999969  49.93999863
C    22.63999939  38.29000092  49.36999893
H    23.08872604  37.67033005  50.14636993
H    17.94000053  38.20999908  51.47999573
H    16.93000031  36.27000046  47.02000046
H    19.52000046  36.47999954  46.45999908
H    21.81999969  37.29000092  47.04999924
H    20.36000061  38.27000046  50.94999695
H    12.27000046  37.70000076  50.86999893
H    23.16999817  38.31999969  48.40999985
H    22.62000084  39.34000015  49.68000031
S    11.46999931  35.93000031  46.44000244
C     8.73999977  36.00000000  47.09000015
C    10.05000019  36.19999695  47.47000122
C    10.48999977  36.68000031  48.75000000
C     9.48999977  36.97000122  49.65999985
C     8.11999989  36.88999939  49.29999924
C     7.11000013  37.06000137  50.28999710
C     5.82000017  36.65000153  50.05000305
C     5.42999983  36.19999695  48.75999832
C     6.37000036  36.04999924  47.77000046
C     7.73999977  36.36000061  48.02000046
C    11.92999935  36.88999939  48.83999634
C    12.61999989  36.53000259  47.64999771
C    14.00000000  36.34999847  47.62000275
C     4.05000019  35.72999954  48.39000320
H     3.54324198  36.30099487  47.61201859
H     8.51000023  35.49000168  46.16000366
H     9.80000019  37.33000183  50.63000107
H     7.46000004  37.15999985  51.31000137
H     5.10999966  36.63999939  50.87999725
H     6.11999989  35.52999878  46.84999847
H    14.40999985  36.05999756  46.65000153
H     3.40999985  35.79999924  49.27999878
H     4.05999994  34.68000031  48.06000137
