96

S    15.24000072  37.36000061  57.25999832
C    18.00000000  37.27999878  56.60999680
C    16.69000053  36.90999985  56.35000229
C    16.31000137  36.29000092  55.12000275
C    17.28999901  36.06999969  54.16999817
C    18.63999939  36.40999985  54.38999939
C    19.70000076  36.18000031  53.46000290
C    21.02000046  36.47000122  53.70999908
C    21.38000107  37.09000015  54.93999863
C    20.35000038  37.47000122  55.77000046
C    18.98999977  37.06000137  55.63000107
C    14.86999989  36.05999756  55.01999664
C    14.14000034  36.55999756  56.12999725
C    12.76000023  36.72000122  56.05999756
C    22.79999924  37.42000198  55.31000137
H    23.13298988  36.86737442  56.18853378
H    18.22999954  37.84000015  57.50999832
H    16.98999977  35.63999939  53.22000122
H    19.45000076  35.88000107  52.43999863
H    21.77000046  36.40999985  52.93000031
H    20.69999886  37.93999863  56.68000031
H    12.15000057  37.11999893  56.86000061
H    23.45000076  37.16999817  54.45999908
H    22.90999985  38.50000000  55.47000122
S    11.76000023  35.06000137  52.57999802
C     9.04999924  35.15999985  53.34000015
C    10.34999943  35.59999847  53.50000000
C    10.69000053  36.25999832  54.72000122
C     9.67000008  36.48999786  55.61999893
C     8.30000019  36.22000122  55.37000275
C     7.25000000  36.60000229  56.25999832
C     5.95000029  36.29000092  55.97000122
C     5.59999990  35.54000092  54.81999969
C     6.58999968  35.22000122  53.90999603
C     7.96000004  35.50000000  54.18000031
C    12.13000107  36.25000000  54.89999771
C    12.86000061  35.72000122  53.80000305
C    14.25000000  35.66999817  53.82999802
C     4.19999981  34.99000168  54.65000153
H     3.63165331  35.51572037  53.88273239
H     8.78999996  34.54999924  52.48000336
H     9.90999985  36.95999908  56.56999969
H     7.50000000  37.06000137  57.22000122
H     5.28999996  36.48999786  56.81000137
H     6.28000021  34.72999954  53.00000000
H    14.81999969  35.49000168  52.91999817
H     3.51000023  35.05000305  55.50000000
H     4.28999996  33.93000031  54.40000153
S    11.97000027  33.36999893  49.50000000
C     9.34000015  32.69000244  50.13999939
C    10.67999935  32.62000275  50.45999908
C    11.18000031  32.04000092  51.66999817
C    10.27999973  31.50000000  52.56000137
C     8.89999962  31.52000046  52.23999786
C     7.94000053  31.05999947  53.18999863
C     6.60000038  31.32999802  52.98999786
C     6.17000008  32.02000046  51.83000183
C     7.02000046  32.43999863  50.81999969
C     8.39999962  32.14999771  51.04999924
C    12.61000061  32.27000046  51.84000015
C    13.15999985  33.02000046  50.77000046
C    14.51000023  33.36000061  50.70000076
C     4.73000002  32.44999695  51.70999908
H     4.27559233  31.99559021  50.82958603
H     9.02000046  33.32999802  49.33000183
H    10.70000076  30.92000008  53.37999725
H     8.19999981  30.50000000  54.08000183
H     5.80999947  30.88000107  53.57999802
H     6.71000004  33.11999893  50.04000092
H    14.88000011  33.94000244  49.86000061
H     4.28999996  32.25000000  52.69000244
H     4.76999998  33.54999924  51.70000076
S    16.00000000  31.77000046  54.08000183
C    18.63999939  32.56000137  53.40999985
C    17.29999924  32.50000000  53.11000061
C    16.73999977  33.04000092  51.90000153
C    17.56999969  33.65000153  50.97000122
C    18.96000099  33.68999863  51.22000122
C    19.82999992  34.25000000  50.24000168
C    21.18000031  34.22999954  50.50000000
C    21.73000145  33.72000122  51.70999908
C    20.88999939  33.20000076  52.67000198
C    19.48999977  33.15000153  52.44999695
C    15.29999924  32.88999939  51.75000000
C    14.75999928  32.29000092  52.91999817
C    13.42000008  31.94000053  52.94000244
C    23.21000099  33.68999863  51.98999786
H    23.45257378  33.86122894  53.03877640
H    19.00000000  32.13000107  54.34000015
H    17.29999924  33.95999908  49.95999908
H    19.45000076  34.76000214  49.36000061
H    21.94999886  34.63999939  49.85000229
H    21.31999969  32.79000092  53.57999802
H    12.97000027  31.32999802  53.72000122
H    23.77000046  34.33000183  51.29000092
H    23.45000076  32.63999939  51.79000092
