96

S    15.32999992  36.90000153  57.54000092
C    17.94999886  37.07999802  56.72999954
C    16.69999886  36.56999969  56.45999908
C    16.31000137  36.08000183  55.18000031
C    17.27000046  36.00000000  54.18000031
C    18.53000069  36.60000229  54.38999939
C    19.59000015  36.45999908  53.43999863
C    20.89999962  36.81000137  53.67000198
C    21.25999832  37.20000076  54.99000168
C    20.29000092  37.30999756  55.96000290
C    18.93000031  36.97000122  55.72000122
C    14.86999989  36.11000061  55.00000000
C    14.22000027  36.48999786  56.20999908
C    12.84000015  36.54999924  56.35000229
C    22.70000076  37.25000000  55.47000122
H    23.00709534  36.37870407  56.04848099
H    18.15999985  37.65999985  57.63000107
H    17.04000092  35.49000168  53.25000000
H    19.29000092  35.88999939  52.56999969
H    21.70000076  36.45999908  53.02999878
H    20.45000076  37.63000107  56.97999954
H    12.41000080  36.70999908  57.34000397
H    23.29000092  37.13999939  54.55999756
H    22.86000061  38.13000107  56.11999893
S    11.56000042  35.50000000  52.70999908
C     8.86999989  35.61000061  53.43000031
C    10.19000053  35.70000076  53.81999969
C    10.57000065  36.09000015  55.13999939
C     9.56999969  36.31999969  56.05999756
C     8.21000004  36.09000015  55.75000000
C     7.17999983  36.37000275  56.69000244
C     5.86000013  36.25999832  56.31999969
C     5.51999998  35.75999832  55.04000092
C     6.48000002  35.45000076  54.10999680
C     7.85000038  35.68000031  54.40999985
C    12.01000023  36.31999969  55.25000000
C    12.64999962  35.96999741  54.03999710
C    14.01999950  35.75000000  53.95000076
C     4.09000015  35.31999969  54.78000259
H     3.67623162  35.79084015  53.88825989
H     8.60999966  35.09999847  52.50000000
H     9.88000011  36.79000092  56.98999786
H     7.46000004  36.65000153  57.70000076
H     5.00000000  36.38999939  56.97999954
H     6.19999981  35.02999878  53.13999939
H    14.50000000  35.40999985  53.04000092
H     3.42999983  35.61999893  55.61000061
H     3.97000027  34.25000000  54.59000015
S    11.89000034  33.55999756  49.81999969
C     9.21000004  33.06000137  50.61999893
C    10.55999947  32.93000031  50.81999969
C    11.03999996  32.20999908  51.95999908
C    10.15999985  31.60000038  52.83000183
C     8.76999950  31.78999901  52.70000076
C     7.82999992  31.21999931  53.61000061
C     6.48000002  31.35000038  53.34999847
C     6.01000023  32.15999985  52.29000092
C     6.90000010  32.83000183  51.47999573
C     8.28999996  32.55000305  51.58000183
C    12.48999977  32.29999924  52.12999725
C    13.02999973  33.11999893  51.11000061
C    14.35999966  33.52000046  51.12999725
C     4.55000019  32.54000092  52.12999725
H     4.12413788  32.11413956  51.22149277
H     8.78999996  33.52000046  49.73999786
H    10.52000046  31.09000015  53.72000122
H     8.13000011  30.63999939  54.47999954
H     5.69999981  30.75000000  53.81999969
H     6.56000042  33.36000061  50.59999847
H    14.77000046  34.08000183  50.28999710
H     3.98999977  32.16999817  53.00000000
H     4.51000023  33.62999725  52.08000183
S    15.80999947  31.77000046  54.40999985
C    18.45000076  32.29999924  53.70999908
C    17.11000061  32.54000092  53.47999954
C    16.61000061  33.20000076  52.31999969
C    17.46999931  33.72000122  51.36000061
C    18.84000015  33.44000244  51.52999878
C    19.80999947  34.01000214  50.65000153
C    21.15999985  33.93000031  50.89000320
C    21.65999985  33.40999985  52.11000061
C    20.72999954  32.88999939  52.98999786
C    19.32999992  32.83000183  52.72999573
C    15.15999985  33.13000107  52.21000290
C    14.60000038  32.37999725  53.27000046
C    13.30000019  31.90000153  53.20000076
C    23.11000061  33.61000061  52.50000000
H    23.51668739  33.06061554  53.34904861
H    18.82999992  31.68000031  54.51000214
H    17.13999939  34.15000153  50.40999985
H    19.52999878  34.40999985  49.68000031
H    21.87000084  34.34000015  50.17000198
H    21.02000046  32.47999954  53.95000076
H    12.88000011  31.19999886  53.92000198
H    23.15000153  34.68000031  52.75000000
H    23.80000114  33.61999893  51.65000153
