96

S    15.18000031  37.29000092  57.49000168
C    17.88999939  37.19000244  56.90000153
C    16.61000061  36.86000061  56.52000046
C    16.22999954  36.45000076  55.20999908
C    17.22999954  36.25000000  54.27999878
C    18.57999992  36.53000259  54.59000015
C    19.61000061  36.65000153  53.61000061
C    20.88999939  37.02000046  53.92000198
C    21.21999931  37.27000046  55.27999878
C    20.22000122  37.40000153  56.20999908
C    18.89999962  36.97999954  55.91999817
C    14.78999996  36.54999924  54.97000122
C    14.09000015  36.95000076  56.12999725
C    12.71000004  36.83000183  56.24000168
C    22.63999939  37.61000061  55.65999985
H    22.99487686  36.99961090  56.49041367
H    18.02999878  37.77000046  57.81000137
H    17.05000114  36.08000183  53.22000122
H    19.44000053  36.32999802  52.57999802
H    21.75000000  36.97999954  53.25000000
H    20.45000076  37.70000076  57.22999954
H    12.18999958  37.20999908  57.11999893
H    23.38000107  37.62000275  54.85000229
H    22.53999901  38.65000153  56.00000000
S    11.57999992  35.72999954  52.55000305
C     8.86999989  35.63000107  53.33000183
C    10.18000031  35.90999985  53.61999893
C    10.57000065  36.31999969  54.93999863
C     9.55999947  36.40000153  55.86999893
C     8.19000053  36.19999695  55.59000015
C     7.13000011  36.51000214  56.50000000
C     5.82999992  36.19999695  56.19999695
C     5.46000004  35.61000061  54.95999908
C     6.46000004  35.42000198  54.02999878
C     7.82000017  35.72999954  54.27999878
C    12.01000023  36.48999786  55.06999969
C    12.68000031  36.18999863  53.86000061
C    14.06999969  36.17000198  53.82999802
C     4.03999996  35.25000000  54.59999847
H     3.60683751  35.92459488  53.86149216
H     8.67999935  35.13999939  52.37999725
H     9.72999954  36.77999878  56.88000107
H     7.42000008  36.65999985  57.54000092
H     4.94999981  36.30000305  56.83000183
H     6.19999981  35.02000046  53.04999924
H    14.68000031  35.84000015  52.98999786
H     3.42000008  35.20999908  55.50000000
H     4.11000013  34.20999908  54.23999786
S    15.67999935  37.73999786  51.43000031
C    18.35000038  37.97000122  50.65000153
C    17.07999992  37.56999969  50.34000015
C    16.73999977  36.95999908  49.09000015
C    17.78000069  36.68000031  48.22000122
C    19.10000038  37.11000061  48.48999786
C    20.17000008  36.84999847  47.60000229
C    21.47000122  37.20000076  47.87000275
C    21.77000046  37.86000061  49.09000015
C    20.76999855  38.09000015  50.01999664
C    19.40999985  37.78000259  49.72999954
C    15.29999924  36.93000031  48.93000031
C    14.59000015  37.29000092  50.10000229
C    13.21000004  37.42000198  50.20999908
C    23.19999886  38.31999969  49.26000214
H    23.66333961  37.56439972  49.89441681
H    18.53000069  38.36000061  51.65000153
H    17.56000137  35.97999954  47.41000366
H    19.79999924  36.25999832  46.76000214
H    22.30999947  37.09000015  47.18999863
H    21.00000000  38.55999756  50.97000122
H    12.84999943  37.70000076  51.19999695
H    23.71999931  38.54000092  48.33000183
H    23.09999847  39.25000000  49.84000397
S    12.01000023  36.45000076  46.56000137
C     9.38000011  36.13999939  47.28000259
C    10.64000034  36.53000259  47.68000031
C    10.98000050  37.06999969  48.95999908
C     9.92000008  37.16999817  49.84000397
C     8.59000015  36.83000183  49.48999786
C     7.57000017  36.77999878  50.47999954
C     6.26999950  36.50000000  50.13000107
C     5.98000002  36.15999985  48.77999878
C     6.94999981  36.04000092  47.81999969
C     8.28999996  36.34999847  48.16999817
C    12.43000031  37.13000107  49.08000183
C    13.12999916  36.76000214  47.90000153
C    14.51000023  36.65999985  47.80000305
C     4.55999994  35.79000092  48.41999817
H     4.06253815  36.47934341  47.73776627
H     9.19000053  35.75000000  46.29000092
H    10.03000069  37.36999893  50.90000153
H     7.85000038  37.04000092  51.50000000
H     5.55000019  36.81000137  50.89000320
H     6.71000004  35.59000015  46.86000061
H    14.86999989  36.31000137  46.84000015
H     3.86999989  35.50000000  49.22000122
H     4.63999987  34.84999847  47.87000275
