96

S    14.78000069  36.88999939  57.43999863
C    17.46000099  36.97000122  56.65999985
C    16.17000008  36.61000061  56.37000275
C    15.76000023  36.12999725  55.07999802
C    16.75000000  35.81999969  54.16999817
C    18.07999992  36.25999832  54.36999893
C    19.12999916  36.19999695  53.40999985
C    20.40999985  36.63000107  53.64999771
C    20.76999855  37.20000076  54.91000366
C    19.75000000  37.36000061  55.80999756
C    18.43000031  36.84000015  55.63999939
C    14.32999992  35.82999802  55.00999832
C    13.68000031  36.36000061  56.14999771
C    12.30999947  36.54000092  56.22000122
C    22.13999939  37.72999954  55.26000214
H    22.66125870  37.10877228  55.98833466
H    17.53999901  37.52999878  57.58999634
H    16.48999977  35.40000153  53.20000076
H    18.86999893  35.77999878  52.43999863
H    21.11999893  36.59000015  52.83000183
H    19.96999931  37.84000015  56.76000214
H    11.92999935  36.97000122  57.14000320
H    22.72999954  37.75000000  54.34000015
H    21.87999916  38.75999832  55.54999924
S    11.11999989  35.15000153  52.64999771
C     8.39999962  35.20000076  53.41999817
C     9.72999954  35.38999939  53.72000122
C    10.08999920  35.81000137  55.05000305
C     9.13999939  36.18999863  55.97999954
C     7.77999973  36.06999969  55.61000061
C     6.69000053  36.29000092  56.50000000
C     5.38000011  35.95999908  56.23000336
C     5.00000000  35.56000137  54.92000198
C     6.00000000  35.45000076  53.97999573
C     7.36999989  35.52999878  54.34000015
C    11.51999950  35.97999954  55.20000076
C    12.18000031  35.52999878  54.02000046
C    13.55999947  35.33000183  53.95999908
C     3.61000013  35.11000061  54.52000046
H     3.25269008  35.48874664  53.56240845
H     8.13000011  34.92000198  52.39999771
H     9.44000053  36.47000122  56.98999786
H     6.91999960  36.48999786  57.54000092
H     4.76000023  35.63999939  57.05999756
H     5.75000000  35.05000305  53.00000000
H    14.04999924  35.22000122  53.00000000
H     2.94999981  35.25000000  55.38999939
H     3.67000008  34.03000259  54.36999893
S    11.69000053  33.44000244  49.77000427
C     9.04999924  32.88999939  50.38999939
C    10.38000011  32.72000122  50.72000122
C    10.85999966  32.14999771  51.93999863
C     9.94999981  31.65999985  52.85999680
C     8.56999969  31.68999863  52.55000305
C     7.59999990  31.21000099  53.47000122
C     6.25999975  31.38999939  53.20999908
C     5.82000017  32.00000000  52.01000214
C     6.75000000  32.47000122  51.11000061
C     8.14999962  32.40999985  51.37000275
C    12.30999947  32.18000031  52.02999878
C    12.89999962  32.86999893  50.93999863
C    14.22999954  33.27000046  50.91999817
C     4.33999968  32.25000000  51.81999969
H     4.03455210  32.02979279  50.79710770
H     8.67999935  33.52000046  49.58000183
H    10.18000031  31.21000099  53.81999969
H     7.86000013  30.73999786  54.40999985
H     5.64000034  31.07000160  54.03999710
H     6.50000000  33.04000092  50.21999741
H    14.67000008  33.90999985  50.15999603
H     3.65999985  31.64999962  52.43000031
H     4.30000019  33.32999802  51.98999786
S    15.67000008  31.70000076  54.27999878
C    18.35000038  32.22999954  53.66000366
C    17.01000023  32.40000153  53.34999847
C    16.52000046  32.97000122  52.14000320
C    17.39999962  33.51000214  51.22000122
C    18.77000046  33.52000046  51.56999969
C    19.78999901  33.88000107  50.65000153
C    21.11000061  33.87000275  51.04000092
C    21.54000092  33.52000046  52.35000229
C    20.58000183  33.08000183  53.22999954
C    19.22000122  32.97999954  52.83000183
C    15.07999992  32.88000107  51.97000122
C    14.50000000  32.11999893  53.02000046
C    13.17999935  31.68999863  53.02000046
C    22.93000031  33.84999847  52.83000183
H    23.38417816  33.23970032  53.61061859
H    18.60999870  31.63000107  54.52999878
H    17.14999962  34.04000092  50.30000305
H    19.52999878  34.29999924  49.68999863
H    21.87999916  34.26000214  50.37000275
H    20.94000053  32.70000076  54.18000031
H    12.71999931  31.04000092  53.75999832
H    22.90999985  34.86000061  53.27000046
H    23.59000015  33.98999786  51.95999908
