96

S    14.86999989  37.33000183  57.08000183
C    17.56000137  37.52000046  56.45999908
C    16.32999992  36.98999786  56.12999725
C    16.06999969  36.37000275  54.86999893
C    17.07999992  36.22999954  53.94000244
C    18.39999962  36.65999985  54.22000122
C    19.52000046  36.48999786  53.36000061
C    20.79999924  36.79000092  53.75000000
C    20.98999977  37.56999969  54.93000031
C    19.90999985  37.76000214  55.75000000
C    18.59000015  37.27000046  55.51000214
C    14.63999939  36.22000122  54.64000320
C    13.89999962  36.84999847  55.66999817
C    12.51000023  36.88999939  55.80999756
C    22.30999947  38.27999878  55.14999771
H    22.96949768  37.68432236  55.78113174
H    17.75000000  38.11000061  57.35000229
H    16.82999992  35.84000015  52.95999908
H    19.32999992  35.97999954  52.41000366
H    21.64999962  36.81000137  53.08000183
H    20.06999969  38.52000046  56.51000214
H    12.13999939  37.27999878  56.75000000
H    22.72999954  38.41999817  54.13999939
H    22.10000038  39.24000168  55.63000107
S    11.43000031  35.45000076  52.31999969
C     8.69000053  35.38999939  52.94000244
C     9.96999931  35.72000122  53.29000092
C    10.34000015  36.27000046  54.56999969
C     9.32999992  36.45999908  55.47999954
C     8.03999996  35.95000076  55.21999741
C     7.03000021  35.97999954  56.23000336
C     5.71000004  35.72999954  55.93000031
C     5.36999989  35.09999847  54.69999695
C     6.32000017  35.02999878  53.69999695
C     7.65999985  35.45999908  53.92000198
C    11.78999996  36.38999939  54.72000122
C    12.53000069  35.79999924  53.67000198
C    13.90999985  35.73999786  53.54000092
C     3.98999977  34.52000046  54.54000092
H     3.39335036  35.21609116  53.95045471
H     8.56999969  35.04000092  51.91999817
H     9.38000011  36.90999985  56.46999741
H     7.32999992  36.19999695  57.25000000
H     4.94000006  35.88000107  56.66999817
H     6.00000000  34.92000198  52.67000198
H    14.44000053  35.36000061  52.67000198
H     3.42000008  34.41999817  55.47000122
H     4.02999973  33.48999786  54.16999817
S    12.02999973  33.63999939  49.52000046
C     9.39000034  32.95000076  50.06999969
C    10.71000004  32.88000107  50.43000031
C    11.23000050  32.34000015  51.65999985
C    10.26999950  31.70999908  52.43000031
C     8.88000011  31.80000114  52.15000153
C     7.94000053  31.19999886  53.02999878
C     6.58999968  31.18000031  52.78999710
C     6.11999989  31.90000153  51.65999985
C     7.00000000  32.43000031  50.75000000
C     8.40999985  32.45999908  50.97000122
C    12.64999962  32.56999969  51.84999847
C    13.22000027  33.34999847  50.79999924
C    14.55999947  33.68999863  50.68999863
C     4.63999987  32.25000000  51.68000031
H     4.10519505  31.92198563  50.78865814
H     9.15999985  33.34999847  49.09000015
H    10.47000027  31.32999802  53.43000031
H     8.43999958  30.65000153  53.82999802
H     5.98000002  30.82999992  53.61999893
H     6.57999992  32.92000198  49.86999893
H    14.96999931  34.29999924  49.89999771
H     4.19000006  31.90999985  52.62000275
H     4.46999979  33.32999802  51.70000076
S    16.07999992  31.88999939  53.92000198
C    18.68999863  32.61000061  53.25000000
C    17.35000038  32.61000061  52.91999817
C    16.80999947  33.15999985  51.70999908
C    17.73999977  33.72999954  50.86999893
C    19.12999916  33.77000046  51.17000198
C    20.05000114  34.45999908  50.33000183
C    21.34000015  34.66999817  50.73999786
C    21.88999939  33.98999786  51.84999847
C    21.02000046  33.36000061  52.70999908
C    19.64999962  33.18000031  52.36999893
C    15.34999943  33.11000061  51.69000244
C    14.80000019  32.43999863  52.81999969
C    13.45999908  32.06999969  52.87000275
C    23.29000092  34.25000000  52.36000061
H    23.68126297  33.56707001  53.11407089
H    19.06999969  32.36999893  54.23999786
H    17.36999893  34.29000092  50.00999832
H    19.67000008  35.06999969  49.51000214
H    21.93000031  35.43000031  50.24000168
H    21.28999901  32.95000076  53.68000031
H    13.17999935  31.28999901  53.56999969
H    23.29000092  35.26000214  52.78999710
H    23.94000053  34.22999954  51.46999741
