96

S    14.85000038  37.37999725  57.06999969
C    17.48999977  37.55000305  56.36000061
C    16.23999977  37.09999847  56.00000000
C    15.95999908  36.54999924  54.69999695
C    17.01000023  36.27999878  53.85000229
C    18.30999947  36.70999908  54.22999954
C    19.47000122  36.40999985  53.47000122
C    20.76000023  36.61999893  53.89999771
C    21.00000000  37.20999908  55.17000198
C    19.92000008  37.68000031  55.86999893
C    18.59000015  37.31999969  55.50000000
C    14.52000046  36.45999908  54.52000046
C    13.83999920  36.90000153  55.68999863
C    12.46000099  36.97000122  55.75000000
C    22.34999847  37.76000214  55.56999969
H    23.00226784  37.02265549  56.03793335
H    17.59000015  38.13000107  57.27000427
H    16.80999947  35.63999939  53.00000000
H    19.34999847  35.88999939  52.51999664
H    21.63000107  36.54000092  53.25000000
H    20.12000084  38.13000107  56.84000015
H    11.97999954  37.18000031  56.70000076
H    22.88000107  38.01000214  54.64000320
H    22.36000061  38.72000122  56.10000229
S    11.38000011  35.77999878  52.05999756
C     8.65999985  35.63999939  52.81999969
C     9.96999931  35.95000076  53.11999893
C    10.29999924  36.30000305  54.47000122
C     9.26000023  36.40000153  55.37000275
C     7.88999987  36.15000153  55.11000061
C     6.89000034  36.18999863  56.12999725
C     5.59999990  36.00000000  55.72000122
C     5.29999971  35.54000092  54.40000153
C     6.28000021  35.35000229  53.44999695
C     7.59999990  35.79000092  53.75000000
C    11.72999954  36.50000000  54.64000320
C    12.42000008  36.20999908  53.43999863
C    13.80000019  36.15999985  53.36000061
C     3.81999993  35.31999969  54.16999817
H     3.42924404  35.94520569  53.36717606
H     8.42000008  35.11000061  51.90000153
H     9.51000023  36.72000122  56.38000107
H     7.23999977  36.53000259  57.09999847
H     4.88000011  36.31000137  56.46999741
H     6.19999981  34.95999908  52.43999863
H    14.27999973  36.08000183  52.37999725
H     3.25000000  35.61999893  55.06000137
H     3.61000013  34.27000046  53.93000031
S    15.39999962  38.04000092  51.32999802
C    18.11000061  37.86000061  50.68000031
C    16.80999947  37.52000046  50.37000275
C    16.52000046  36.88000107  49.12000275
C    17.48999977  36.65000153  48.16999817
C    18.81999969  36.93999863  48.52000427
C    19.89999962  36.81000137  47.60000229
C    21.15999985  37.29000092  47.84999847
C    21.45999908  37.90999985  49.09999847
C    20.46999931  38.06000137  50.05000305
C    19.15999985  37.59000015  49.75999832
C    15.06999969  36.90999985  48.93000031
C    14.37000084  37.57999802  49.95999908
C    12.98999977  37.72000122  49.91000366
C    22.85000038  38.38000107  49.43000031
H    23.27589035  37.74116516  50.20369720
H    18.27999878  38.36999893  51.62000275
H    17.23999977  36.36000061  47.15000153
H    19.78999901  36.56999969  46.53999710
H    21.84999847  37.23999786  47.01000214
H    20.69000053  38.51000214  51.00999832
H    12.41000080  38.08000183  50.76000214
H    23.44000053  38.32999802  48.50999832
H    22.86000061  39.45000076  49.66999817
S    11.97999954  35.95999908  46.45999908
C     9.26999950  35.93000031  47.02000046
C    10.52999973  36.32999802  47.41000366
C    10.84000015  37.04000092  48.61000061
C     9.77999973  37.38999939  49.43000031
C     8.50000000  36.84999847  49.15999985
C     7.40000010  37.18000031  50.00999832
C     6.21000004  36.59000015  49.65999985
C     5.86999989  35.86999893  48.47999954
C     6.93000031  35.61999893  47.63999939
C     8.21000004  36.18000031  47.91999817
C    12.27000046  37.13000107  48.86000061
C    13.00000000  36.60000229  47.76000214
C    14.37999916  36.50000000  47.77999878
C     4.46999979  35.45000076  48.11999893
H     4.03683758  36.18850327  47.44540024
H     9.11000061  35.36999893  46.11000061
H     9.96000004  37.97000122  50.34000015
H     7.51999950  37.90999985  50.79999924
H     5.46999979  36.72000122  50.44000244
H     6.85999966  35.02999878  46.72000122
H    15.01999950  36.15999985  46.97000122
H     3.89999986  35.43000031  49.05000305
H     4.57999992  34.48999786  47.60000229
