96

S    14.86999989  37.56000137  57.29000092
C    17.57999992  37.56000137  56.63999939
C    16.28999901  37.25000000  56.27999878
C    15.95999908  36.63000107  55.02999878
C    16.98999977  36.53000259  54.10999680
C    18.34000015  36.76000214  54.43000031
C    19.45999908  36.65999985  53.55999756
C    20.71000099  37.09999847  53.89999771
C    20.97999954  37.63999939  55.19000244
C    19.93999863  37.79000092  56.06999969
C    18.63999939  37.30999756  55.72999954
C    14.53999996  36.31999969  54.97000122
C    13.82999992  36.70999908  56.12999725
C    12.44999981  36.88000107  56.17000198
C    22.39000130  38.06999969  55.54000092
H    22.86637497  37.38032150  56.23678970
H    17.76000023  37.99000168  57.62000275
H    16.72000122  36.43000031  53.06000137
H    19.23999977  36.45000076  52.50999832
H    21.51000023  37.06999969  53.16999817
H    20.07999802  38.41999817  56.93999863
H    11.97000027  37.20999908  57.09000015
H    23.03999901  38.09000015  54.65000153
H    22.43999863  39.11999893  55.84999847
S    11.30000019  35.79000092  52.54000092
C     8.60999966  35.70000076  53.18000031
C     9.88000011  36.05999756  53.56999969
C    10.22999954  36.60000229  54.85000229
C     9.19999981  36.70999908  55.76000214
C     7.90000010  36.24000168  55.47000122
C     6.81999969  36.32999802  56.38999939
C     5.53999996  35.90999985  56.11999893
C     5.25000000  35.38000107  54.82999802
C     6.25000000  35.35000229  53.88000107
C     7.59000015  35.72000122  54.15999985
C    11.68000031  36.63999939  55.02999878
C    12.38000011  36.17000198  53.88999939
C    13.73999977  35.89999771  53.89999771
C     3.84000015  35.02999878  54.43000031
H     3.29359198  35.76090622  53.83391953
H     8.30999947  35.51000214  52.15000153
H     9.38000011  36.97000122  56.79999924
H     7.07999992  36.86000061  57.30999756
H     4.78999996  35.96999741  56.88999939
H     6.05999994  35.09999847  52.84000015
H    14.15999985  35.59999847  52.94000244
H     3.25999999  34.69000244  55.30000305
H     3.89999986  34.11000061  53.83999634
S    15.24000072  37.76000214  51.39999771
C    17.97999954  37.85000229  50.65000153
C    16.68000031  37.47000122  50.40999985
C    16.36000061  36.91999817  49.13000107
C    17.43000031  36.55999756  48.33000183
C    18.77000046  36.91999817  48.55999756
C    19.82999992  36.72000122  47.62000275
C    21.11999893  37.06000137  47.94000244
C    21.45000076  37.68000031  49.18000031
C    20.43000031  37.93000031  50.06000137
C    19.07999992  37.52999878  49.81999969
C    14.91000080  36.90999985  48.97999573
C    14.13000011  37.36999893  50.06999969
C    12.74000072  37.47999954  50.06999969
C    22.82999992  38.22999954  49.47000122
H    23.42575455  37.59169388  50.12248993
H    18.17000008  38.46999741  51.52000046
H    17.18000031  36.22999954  47.31999969
H    19.65999985  36.43000031  46.59000015
H    21.90000153  37.11999893  47.18000031
H    20.48999977  38.54999924  50.94999695
H    12.23000050  37.97999954  50.89000320
H    23.45000076  38.34999847  48.56999969
H    22.79000092  39.26000214  49.82999802
S    11.67000008  36.09000015  46.59999847
C     8.96000004  36.06999969  47.35000229
C    10.24000072  36.51000214  47.56999969
C    10.52999973  37.02999878  48.87000275
C     9.52999973  37.27999878  49.79000092
C     8.19000053  36.88000107  49.54000092
C     7.17000008  36.84000015  50.54000092
C     5.93999958  36.27999878  50.31000137
C     5.63000011  35.79999924  49.01000214
C     6.60000038  35.70999908  48.04000092
C     7.90999985  36.22000122  48.29999924
C    11.98999977  37.06999969  48.96999741
C    12.76999950  36.58000183  47.88999939
C    14.14999962  36.41999817  47.90999985
C     4.21000004  35.38000107  48.73000336
H     3.79586840  35.99406052  47.93029785
H     8.82000065  35.43999863  46.47999573
H     9.80000019  37.49000168  50.81999969
H     7.42999983  37.34000015  51.46999741
H     5.18000031  36.15000153  51.07999802
H     6.34999990  35.23999786  47.09000015
H    14.52999973  35.94000244  47.01000214
H     3.56999993  35.50000000  49.61000061
H     4.15000010  34.29000092  48.54999924
