96

S    15.26999950  37.59999847  57.22000122
C    17.97000122  37.73999786  56.49000168
C    16.68000031  37.38999939  56.17000198
C    16.39999962  36.56999969  55.01999664
C    17.40999985  36.25999832  54.12000275
C    18.71000099  36.74000168  54.36999893
C    19.82999992  36.45999908  53.54999924
C    21.11000061  36.88000107  53.82999802
C    21.35999870  37.59000015  55.04000092
C    20.36000061  37.72999954  55.97000122
C    19.03000069  37.38999939  55.61999893
C    14.96999931  36.31000137  54.93999863
C    14.21000004  36.86000061  56.00000000
C    12.84999943  37.13999939  55.96000290
C    22.79000092  37.83000183  55.47000122
H    23.30784798  37.18446350  56.17937851
H    18.13999939  38.20999908  57.45999908
H    17.23999977  35.70999908  53.20000076
H    19.69000053  35.77000046  52.71999741
H    21.88999939  36.59000015  53.13000107
H    20.50000000  38.09999847  56.98999786
H    12.36999989  37.80999756  56.66999817
H    23.35000038  37.84000015  54.52999878
H    22.82999992  38.81999969  55.93000031
S    11.78999996  35.51000214  52.50999832
C     9.09000015  35.70999908  53.04999924
C    10.36999893  36.06999969  53.40000153
C    10.69000053  36.70999908  54.65000153
C     9.68999958  36.90999985  55.58000183
C     8.34999943  36.63999939  55.20999908
C     7.31999969  36.88000107  56.16000366
C     6.02999973  36.47000122  55.90000153
C     5.75000000  35.84000015  54.65999985
C     6.69000053  35.72999954  53.64999771
C     8.05000019  36.04000092  53.95000076
C    12.13000107  36.63999939  54.86000061
C    12.86000061  35.97999954  53.83999634
C    14.23999977  35.82999802  53.85000229
C     4.36999989  35.29000092  54.38999939
H     3.77962494  35.90882874  53.71426773
H     8.82999992  35.11000061  52.16999817
H     9.98000050  37.13999939  56.59999847
H     7.55999994  37.20000076  57.16999817
H     5.29999971  36.59000015  56.69000244
H     6.30999994  35.43000031  52.68000031
H    14.80000019  35.63000107  52.94000244
H     3.75000000  35.11000061  55.27000046
H     4.44000006  34.27999878  53.95999908
S    11.44999981  33.55999756  49.73999786
C     8.75000000  33.01000214  50.50000000
C    10.10000038  32.93999863  50.70999908
C    10.59000015  32.45999908  51.97000122
C     9.70000076  32.06000137  52.95000076
C     8.30000019  32.09999847  52.72999573
C     7.36999989  31.50000000  53.61999893
C     6.07999992  31.31000137  53.20000076
C     5.58000040  31.70999908  51.93000031
C     6.42000008  32.44999695  51.12999725
C     7.81000042  32.54000092  51.45000076
C    12.03999996  32.33000183  52.02999878
C    12.64000034  32.97000122  50.90999985
C    13.99000072  33.27999878  50.89000320
C     4.15999985  31.34000015  51.58000183
H     3.82499862  31.59659767  50.57499695
H     8.32999992  33.38999939  49.56999969
H     9.94999981  31.63999939  53.92000198
H     7.69000006  31.04999924  54.55999756
H     5.51000023  30.69999886  53.89999771
H     6.02999973  32.66999817  50.13999939
H    14.26000023  34.00000000  50.12000275
H     4.13999987  30.23999977  51.52000046
H     3.44000006  31.54999924  52.37999725
S    15.27999973  31.94000053  54.38000107
C    17.98999977  32.42000198  53.69999695
C    16.64999962  32.47000122  53.39000320
C    16.26000023  33.00000000  52.11999893
C    17.20000076  33.65999985  51.33999634
C    18.56999969  33.63999939  51.68000031
C    19.57999992  34.01000214  50.75000000
C    20.88999939  34.03000259  51.16000366
C    21.34000015  33.52999878  52.41000366
C    20.38999939  32.97000122  53.23999786
C    19.01000023  33.00000000  52.90000153
C    14.84000015  32.78000259  51.88000107
C    14.21000004  32.13999939  52.97999954
C    12.84000015  31.94000053  53.09999847
C    22.77000046  33.06999969  52.56000137
H    23.29593277  33.53907394  53.39154434
H    18.23999977  32.02000046  54.68000031
H    16.79000092  34.05999756  50.41999817
H    19.23999977  34.13999939  49.72999954
H    21.68000031  34.31000137  50.47000122
H    20.65000153  32.43000031  54.13999939
H    12.42000008  31.54999924  54.02000046
H    23.16999817  33.29999924  51.56999969
H    22.84000015  31.97999954  52.67000198
