96

S    14.61999989  37.56000137  57.21000290
C    17.28999901  37.50999832  56.69000244
C    16.04999924  37.13000107  56.24000168
C    15.73999977  36.41999817  55.04000092
C    16.84000015  36.13999939  54.25000000
C    18.13999939  36.58000183  54.59000015
C    19.27999878  36.37000275  53.75999832
C    20.52000046  36.81000137  54.13999939
C    20.76000023  37.55000305  55.33000183
C    19.68000031  37.77000046  56.16000366
C    18.38999939  37.27000046  55.83000183
C    14.29999924  36.36000061  54.86000061
C    13.56999969  36.79999924  55.98999786
C    12.18000031  36.74000168  56.04999924
C    22.17000008  38.02000046  55.61000061
H    22.58184052  37.38093567  56.39107895
H    17.43000031  38.02000046  57.63999939
H    16.68000031  35.65000153  53.29000092
H    19.18000031  35.93000031  52.77000046
H    21.28000069  36.70000076  53.36999893
H    19.79999924  38.22999954  57.12999725
H    11.72999954  37.20000076  56.91999817
H    22.79999924  38.02999878  54.71000290
H    22.06999969  39.08000183  55.86999893
S    11.09000015  35.47000122  52.41000366
C     8.36999989  35.56000137  53.04999924
C     9.67000008  35.81999969  53.40999985
C    10.03999901  36.22999954  54.73999786
C     9.00000000  36.56999969  55.56999969
C     7.64999962  36.25000000  55.30000305
C     6.53999996  36.48999786  56.16000366
C     5.25000000  36.18999863  55.79000092
C     4.94999981  35.65999985  54.51000214
C     5.98999977  35.45000076  53.61999893
C     7.34000015  35.68999863  54.01000214
C    11.47999954  36.29000092  54.92000198
C    12.18000031  35.96999741  53.72000122
C    13.56999969  35.94000244  53.74000168
C     3.50000000  35.47999954  54.15000153
H     3.34394979  35.88431168  53.14986038
H     8.17000008  35.22999954  52.04000092
H     9.30999947  36.98999786  56.52999878
H     6.71000004  36.88999939  57.15999985
H     4.44000006  36.34000015  56.50000000
H     5.86999989  35.16999817  52.57999802
H    14.11000061  35.58000183  52.88000107
H     2.82000017  35.95999908  54.86999893
H     3.02999997  34.48999786  54.25000000
S    11.90000057  33.77000046  49.59000015
C     9.21000004  33.11000061  50.27999878
C    10.57000065  33.01000214  50.47999954
C    11.10000038  32.31999969  51.62000275
C    10.21999931  31.87000084  52.57999802
C     8.82000065  32.00000000  52.41000366
C     7.88999987  31.47999954  53.36000061
C     6.52999973  31.56999969  53.13999939
C     6.00000000  32.18000031  51.97000122
C     6.86999989  32.70000076  51.04000092
C     8.27999973  32.59999847  51.22000122
C    12.55000019  32.45999908  51.73999786
C    13.17000008  33.18000031  50.68999863
C    14.42999935  33.72999954  50.84000015
C     4.51999998  32.45999908  51.84999847
H     4.07194090  32.06172562  50.93965530
H     8.82000065  33.68999863  49.45000076
H    10.59000015  31.38000107  53.47999954
H     8.27000046  31.11000061  54.31000137
H     5.92999983  31.31999969  54.00000000
H     6.48000002  33.32999802  50.25000000
H    14.85999966  34.34999847  50.05000305
H     3.98000002  32.02999878  52.70000076
H     4.39000034  33.54000092  51.69000244
S    15.73999977  31.98999786  54.20999908
C    18.43000031  32.47999954  53.56999969
C    17.10000038  32.70999908  53.31999969
C    16.64999962  33.34000015  52.11999893
C    17.60000038  33.82999802  51.24000168
C    18.97999954  33.68000031  51.50000000
C    19.92000008  34.31999969  50.63999939
C    21.27000046  34.11000061  50.81999969
C    21.71999931  33.34000015  51.91999817
C    20.81999969  32.80999756  52.81999969
C    19.40999985  32.97000122  52.68000031
C    15.21000004  33.31000137  51.93000031
C    14.63000107  32.47999954  52.91999817
C    13.30000019  32.06999969  52.84999847
C    23.19000053  32.97999954  51.97999954
H    23.63698387  33.38441467  52.88816071
H    18.68999863  31.70999908  54.29999924
H    17.36999893  34.47000122  50.40000153
H    19.68000031  34.81999969  49.71000290
H    22.03000069  34.45999908  50.12000275
H    21.14999962  32.09999847  53.56999969
H    12.88000011  31.59000015  53.74000168
H    23.64000130  33.36999893  51.06999969
H    23.22000122  31.87999916  51.95999908
