96

S    15.11000061  37.29000092  57.43000031
C    17.78000069  37.40000153  56.65999985
C    16.50000000  36.98999786  56.37000275
C    16.11999893  36.53000259  55.06999969
C    17.13999939  36.47000122  54.13999939
C    18.45000076  36.93999863  54.38999939
C    19.47999954  36.83000183  53.41999817
C    20.81999969  36.97999954  53.70999908
C    21.18000031  37.37999725  55.01999664
C    20.22000122  37.52000046  56.00000000
C    18.85000038  37.22999954  55.73999786
C    14.65999985  36.45999908  54.99000168
C    13.96000004  36.90999985  56.12999725
C    12.57999992  36.88999939  56.18000031
C    22.63000107  37.78000259  55.24000168
H    23.09163475  37.20473480  56.04253387
H    17.86000061  37.90000153  57.62000275
H    16.92000008  36.06999969  53.15000153
H    19.12999916  36.47999954  52.44999695
H    21.57999992  36.88000107  52.94000244
H    20.45999908  37.88000107  56.98999786
H    12.05000019  37.29000092  57.04000092
H    23.21000099  37.78000259  54.31000137
H    22.72000122  38.86000061  55.40000153
S    11.51000023  36.00000000  52.44999695
C     8.82000065  35.90999985  53.04999924
C    10.08999920  36.22000122  53.47999954
C    10.40999985  36.55999756  54.84000397
C     9.35000038  36.65999985  55.72000122
C     8.03999996  36.27999878  55.34000015
C     7.04999971  36.20999908  56.36000061
C     5.75999975  35.82999802  56.04999924
C     5.42999983  35.45999908  54.72000122
C     6.39999962  35.56000137  53.75000000
C     7.73999977  35.98999786  53.95999908
C    11.85999966  36.53000259  55.04000092
C    12.57999992  36.24000168  53.85000229
C    13.96000004  36.17000198  53.81000137
C     4.03999996  34.97999954  54.40000153
H     3.67204928  35.59560776  53.57918549
H     8.60000038  35.51000214  52.05999756
H     9.53999996  36.84999847  56.77000046
H     7.42999983  36.56999969  57.30999756
H     4.97000027  35.86999893  56.79000092
H     6.25000000  35.18000031  52.74000168
H    14.53999996  35.75000000  52.98999786
H     3.45999980  35.22000122  55.30000305
H     4.07999992  33.90999985  54.19000244
S    15.55999947  37.92000198  51.36000061
C    18.26000023  37.92000198  50.68000031
C    16.97999954  37.50999832  50.38999939
C    16.61999893  36.90000153  49.15000153
C    17.61000061  36.68999863  48.20000076
C    18.92000008  37.19000244  48.37999725
C    19.93000031  37.13999939  47.36999893
C    21.22999954  37.43999863  47.71999741
C    21.57999992  37.95999908  48.99000168
C    20.56999969  38.20000076  49.88999939
C    19.22999954  37.79000092  49.65000153
C    15.17000008  36.86999893  49.02999878
C    14.40999985  37.36000061  50.13000107
C    13.03999996  37.62000275  50.08999634
C    23.01000214  38.38000107  49.27000046
H    23.44945335  37.66411591  49.96461868
H    18.46999931  38.61000061  51.50000000
H    17.35999870  36.31000137  47.22000122
H    19.68000031  36.70999908  46.40999603
H    22.06999969  37.34999847  47.02999878
H    20.82999992  38.61000061  50.86999893
H    12.43999958  38.02000046  50.89000320
H    23.65999985  38.39999771  48.39000320
H    23.03999901  39.38000107  49.72000122
S    11.94000053  36.15999985  46.53999710
C     9.26999950  36.05999756  47.32999802
C    10.55999947  36.47000122  47.60000229
C    10.88000107  37.07999802  48.86000061
C     9.84000015  37.40000153  49.71000290
C     8.48999977  37.07999802  49.43000031
C     7.37999964  37.27000046  50.31000137
C     6.11000013  36.83000183  50.02999878
C     5.86999989  36.15000153  48.81000137
C     6.88000011  35.93000031  47.90000153
C     8.21000004  36.31999969  48.23999786
C    12.31999969  37.20999908  48.95999908
C    13.02000046  36.61999893  47.87000275
C    14.40999985  36.61999893  47.88999939
C     4.42999983  35.89999771  48.43000031
H     4.02465773  36.45467758  47.58375931
H     8.98999977  35.77999878  46.31999969
H    10.07999992  37.97999954  50.59000015
H     7.55999994  37.61000061  51.32999802
H     5.31000042  37.06999969  50.72999954
H     6.60000038  35.47999954  46.95999908
H    14.84000015  36.11999893  47.02999878
H     3.82999992  35.98999786  49.34999847
H     4.39000034  34.84999847  48.11999893
