96

S    14.85000038  36.90999985  57.45999908
C    17.56999969  36.97000122  56.81999969
C    16.28000069  36.63000107  56.45999908
C    15.93000031  36.04000092  55.20000076
C    16.95999908  35.86000061  54.29999924
C    18.27000046  36.27000046  54.61999893
C    19.26000023  36.18999863  53.59000397
C    20.55000114  36.59000015  53.82999802
C    20.88999939  37.11000061  55.11000061
C    19.97999954  37.19000244  56.13999939
C    18.63999939  36.77999878  55.90999985
C    14.47999954  35.95999908  55.05000305
C    13.73000050  36.43000031  56.16000366
C    12.36999989  36.68000031  56.20999908
C    22.29000092  37.61000061  55.43000031
H    22.74648476  36.94667053  56.16465378
H    17.75000000  37.36999893  57.81999969
H    16.68000031  35.45999908  53.31999969
H    18.86999893  35.86000061  52.63000107
H    21.28999901  36.60000229  53.04000092
H    20.10999870  37.62000275  57.12999725
H    11.82999992  36.93999863  57.11999893
H    22.81999969  37.76000214  54.47999954
H    22.20000076  38.62999725  55.81999969
S    11.26999950  35.45000076  52.56999969
C     8.55000019  35.63000107  53.20000076
C     9.85999966  35.91999817  53.54000092
C    10.19999981  36.43000031  54.82999802
C     9.22000027  36.61000061  55.79000092
C     7.86999989  36.30000305  55.48999786
C     6.83000040  36.38000107  56.45000076
C     5.51000023  36.06999969  56.20999908
C     5.18000031  35.61999893  54.89999771
C     6.17000008  35.47999954  53.95999908
C     7.53000021  35.81999969  54.16999817
C    11.64000034  36.47999954  55.02999878
C    12.32999992  35.95999908  53.89999771
C    13.67000008  35.59999847  53.97999573
C     3.78999996  35.09000015  54.68000031
H     3.32152247  35.54428101  53.80692673
H     8.40999985  35.00999832  52.31999969
H     9.48999977  36.86999893  56.81000137
H     7.23999977  36.65000153  57.41000366
H     4.84000015  36.06999969  57.06999969
H     5.98000002  35.09000015  52.95999908
H    14.19999981  35.18000031  53.11999893
H     3.23000002  35.40000153  55.56999969
H     3.68000007  34.00000000  54.72000122
S    15.47000027  37.29999924  51.39999771
C    18.11000061  37.66999817  50.65000153
C    16.84999847  37.23999786  50.28999710
C    16.44000053  36.81999969  48.99000168
C    17.46999931  36.75000000  48.06000137
C    18.79999924  37.07999802  48.40000153
C    19.85999870  36.83000183  47.48000336
C    21.17000198  37.07999802  47.80000305
C    21.53000069  37.65000153  49.05000305
C    20.52999878  37.83000183  49.98000336
C    19.17000008  37.52000046  49.72000122
C    14.98999977  36.72999954  48.87000275
C    14.32000065  37.04000092  50.06999969
C    12.93000031  37.06999969  50.20000076
C    22.95999908  37.97999954  49.40999985
H    23.44377327  37.26145554  50.07163239
H    18.26000023  38.08000183  51.63999939
H    17.35000038  36.18000031  47.14000320
H    19.63999939  36.44000244  46.49000168
H    21.93000031  36.77000046  47.08000183
H    20.72000122  38.25000000  50.97000122
H    12.56999969  37.40999985  51.17000198
H    23.44000053  38.09000015  48.43000031
H    23.00000000  38.97000122  49.86999893
S    11.71000004  36.34000015  46.52999878
C     9.00000000  36.09000015  47.29000092
C    10.31000042  36.38999939  47.61000061
C    10.67000008  36.86999893  48.90999603
C     9.64999962  37.14999771  49.80999756
C     8.30000019  36.83000183  49.54000092
C     7.30000019  36.83000183  50.54999924
C     5.98999977  36.50000000  50.28999710
C     5.59999990  36.00000000  49.02000046
C     6.61999989  35.81999969  48.11999893
C     7.97999954  36.24000168  48.26000214
C    12.10999966  36.86999893  49.09000015
C    12.81999969  36.63000107  47.88000107
C    14.19000053  36.47999954  47.74000168
C     4.21000004  35.49000168  48.75000000
H     3.91021299  35.91826630  47.79354095
H     8.76999950  35.81000137  46.26999664
H     9.96999931  37.49000168  50.79000092
H     7.59000015  36.86999893  51.59000015
H     5.23999977  36.79999924  51.03000259
H     6.28000021  35.38000107  47.18999863
H    14.60999966  36.34999847  46.75000000
H     3.55999994  35.84000015  49.55999756
H     4.17000008  34.40000153  48.85000229
