96

S    15.06999969  37.26000214  57.31999969
C    17.77000046  37.38999939  56.68000031
C    16.51000023  37.00999832  56.31000137
C    16.20000076  36.43000031  55.04000092
C    17.25000000  36.22999954  54.15999985
C    18.54999924  36.68000031  54.50000000
C    19.55000114  36.32999802  53.54999924
C    20.86999893  36.53000259  53.88000107
C    21.18999863  37.19000244  55.08999634
C    20.20999908  37.68000031  55.91999817
C    18.84000015  37.33000183  55.75000000
C    14.75000000  36.41999817  54.86000061
C    13.99000072  36.75000000  56.00999832
C    12.60000038  36.75000000  56.04999924
C    22.65000153  37.52999878  55.30000305
H    22.96997452  37.12469864  56.25992584
H    17.94000053  37.88000107  57.63999939
H    17.17000008  35.51000214  53.34999847
H    19.22000122  36.00000000  52.56999969
H    21.61999893  36.31000137  53.11999893
H    20.45999908  38.18999863  56.84999847
H    12.10000038  37.04999924  56.97000122
H    23.19999886  37.11999893  54.43999863
H    22.80999947  38.61000061  55.34000015
S    11.65999985  35.47999954  52.41000366
C     8.89999962  35.36999893  53.00000000
C    10.18000031  35.72999954  53.34999847
C    10.47999954  36.29000092  54.62999725
C     9.44000053  36.50000000  55.52000046
C     8.10999966  36.11999893  55.21999741
C     7.05999947  36.27000046  56.17000198
C     5.77000046  35.86000061  55.90000153
C     5.51000023  35.25000000  54.65000153
C     6.48999977  35.19000244  53.68000031
C     7.83999968  35.59000015  53.90999603
C    11.90999985  36.38000107  54.88999939
C    12.69000053  35.95000076  53.79000092
C    14.06999969  35.82999802  53.79000092
C     4.07000017  34.90000153  54.36000061
H     3.67063594  35.59175491  53.61832428
H     8.69000053  34.99000168  52.00000000
H     9.68999958  36.81999969  56.52999878
H     7.21000004  36.70999908  57.15000153
H     4.99000025  36.04000092  56.63999939
H     6.39999962  34.73999786  52.70000076
H    14.65999985  35.52000046  52.93000031
H     3.54999995  34.97000122  55.33000183
H     4.13000011  33.88000107  53.94000244
S    11.85999966  33.45999908  49.61000061
C     9.17000008  32.83000183  50.24000168
C    10.52000046  32.75000000  50.52999878
C    10.98999977  32.07999802  51.70000076
C    10.06999969  31.57999992  52.61000061
C     8.69000053  31.64999962  52.31999969
C     7.67000008  31.28999901  53.26000214
C     6.32999992  31.47999954  53.02999878
C     5.88999987  32.00999832  51.79000092
C     6.81999969  32.47000122  50.86999893
C     8.21000004  32.33000183  51.14999771
C    12.41000080  32.26000214  51.93999863
C    13.02000046  32.90999985  50.83000183
C    14.39000034  33.09999847  50.89000320
C     4.42999983  32.34999847  51.58000183
H     4.02504492  32.07292557  50.60668564
H     8.82000065  33.15999985  49.27000046
H    10.42000008  31.28999901  53.60000229
H     7.97999954  31.07999992  54.27999878
H     5.68000031  31.28999901  53.87000275
H     6.61000013  32.95999908  49.92000198
H    14.84000015  33.51000214  49.99000168
H     3.86000013  31.93000031  52.42000198
H     4.33999968  33.44000244  51.63000107
S    15.60999966  31.70000076  54.38999939
C    18.27000046  32.26000214  53.89999771
C    16.97000122  32.42000198  53.50999832
C    16.59000015  32.97999954  52.23999786
C    17.60000038  33.38000107  51.38999939
C    18.96999931  33.31000137  51.77000046
C    20.02000046  33.90999985  51.02000427
C    21.35000038  33.79000092  51.35000229
C    21.70000076  33.16999817  52.57999802
C    20.66999817  32.83000183  53.43000031
C    19.29999924  32.79000092  53.06999969
C    15.15999985  32.79000092  52.02000046
C    14.47999954  32.20000076  53.11000061
C    13.14000034  31.86000061  53.06999969
C    23.15000153  32.83000183  52.80000305
H    23.57549286  33.19166946  53.73608780
H    18.46999931  31.80000114  54.86000061
H    17.35000038  33.95000076  50.50000000
H    19.67000008  34.27999878  50.06000137
H    22.18000031  34.18000031  50.77000046
H    20.95999908  32.42000198  54.40000153
H    12.75000000  31.11999893  53.75999832
H    23.65999985  33.36999893  51.97999954
H    23.34000015  31.76000214  52.67000198
