96

S    14.84000015  37.16999817  57.25000000
C    17.56000137  37.14999771  56.59999847
C    16.27000046  36.79999924  56.26999664
C    15.90000057  36.20999908  55.01999664
C    16.94000053  35.97999954  54.13999939
C    18.27999878  36.30000305  54.43999863
C    19.32999992  36.17000198  53.48999786
C    20.61000061  36.54999924  53.77999878
C    21.00000000  37.09000015  55.04000092
C    19.98999977  37.23999786  55.97000122
C    18.63999939  36.84999847  55.72999954
C    14.46000004  36.05999756  54.86000061
C    13.75000000  36.55999756  55.97999954
C    12.36999989  36.74000168  55.97000122
C    22.40999985  37.55000305  55.34000015
H    22.90249443  36.92189407  56.08231354
H    17.71999931  37.88999939  57.37999725
H    16.76000023  35.52000046  53.16999817
H    19.22000122  35.84999847  52.44999695
H    21.37000084  36.24000168  53.06999969
H    20.17999840  37.65999985  56.95000076
H    11.82000065  37.00000000  56.86000061
H    22.95000076  37.55000305  54.38000107
H    22.43999863  38.61000061  55.61999893
S    11.18999958  35.58000183  52.38999939
C     8.51000023  35.42000198  53.09999847
C     9.78999996  35.75999832  53.47000122
C    10.19000053  36.18000031  54.78000259
C     9.18000031  36.40999985  55.70000076
C     7.82999992  36.19999695  55.33000183
C     6.67999983  36.29000092  56.16000366
C     5.36999989  35.93000031  55.91999817
C     5.14999962  35.33000183  54.65000153
C     6.17999983  35.16999817  53.74000168
C     7.46999979  35.70000076  54.02999878
C    11.63000011  36.31000137  54.86000061
C    12.32999992  35.81000137  53.73000336
C    13.71000099  35.66999817  53.75000000
C     3.71000004  34.97000122  54.38000107
H     3.17044854  35.54504776  53.62746811
H     8.38999939  34.86000061  52.18000031
H     9.46000004  36.68999863  56.70999908
H     6.80999994  36.77000046  57.12999725
H     4.51999998  36.09999847  56.56000137
H     6.12999964  34.70000076  52.77000046
H    14.15999985  35.45000076  52.77999878
H     3.12999988  34.92000198  55.31999969
H     3.68999982  33.90000153  54.12000275
S    15.25000000  37.50999832  51.63000107
C    17.94999886  37.69000244  50.91999817
C    16.65999985  37.40000153  50.56000137
C    16.31000137  36.95000076  49.25000000
C    17.28999901  36.70000076  48.30999756
C    18.63999939  37.04000092  48.61000061
C    19.64999962  36.90999985  47.62000275
C    20.89999962  37.45999908  47.83000183
C    21.27000046  37.88000107  49.13999939
C    20.28000069  38.02000046  50.08999634
C    18.95000076  37.56999969  49.91000366
C    14.88000011  36.72999954  49.12000275
C    14.18000031  37.23999786  50.24000168
C    12.79000092  37.29999924  50.19000244
C    22.69000053  38.31000137  49.43000031
H    23.05443954  37.80264282  50.32323456
H    18.12999916  38.01000214  51.93999863
H    17.04000092  36.30000305  47.34000397
H    19.52000046  36.38000107  46.68000031
H    21.63000107  37.47999954  47.02999878
H    20.55000114  38.48999786  51.03000259
H    12.25999928  37.61000061  51.09000397
H    23.32999992  38.15999985  48.54999924
H    22.65999985  39.36999893  49.69999695
S    11.76000023  35.98999786  46.55000305
C     9.06999969  35.86999893  47.32999802
C    10.34999943  36.31000137  47.56999969
C    10.70000076  36.95000076  48.80000305
C     9.71000004  37.06000137  49.75999832
C     8.36000061  36.74000168  49.52999878
C     7.30999994  36.84999847  50.48999786
C     6.02999973  36.50000000  50.15999603
C     5.72000027  35.82999802  48.95000076
C     6.71000004  35.70000076  48.00000000
C     8.02999973  36.19999695  48.23999786
C    12.15000057  36.93999863  49.01000214
C    12.84000015  36.38999939  47.90000153
C    14.22999954  36.31000137  47.95000076
C     4.36999989  35.19000244  48.76999664
H     3.67190266  35.75275421  48.15026093
H     8.82999992  35.29999924  46.44000244
H    10.01999950  37.30999756  50.77999878
H     7.63999987  37.20000076  51.46999741
H     5.28999996  36.67000198  50.93999863
H     6.48999977  35.19000244  47.06999969
H    14.84000015  36.02999878  47.09000015
H     3.91000009  35.15999985  49.77000427
H     4.53999996  34.17000198  48.40000153
