96

S    14.61999989  37.56000137  57.21000290
C    17.28999901  37.50999832  56.69000244
C    16.04999924  37.13000107  56.24000168
C    15.73999977  36.41999817  55.04000092
C    16.84000015  36.13999939  54.25000000
C    18.13999939  36.58000183  54.59000015
C    19.27999878  36.37000275  53.75999832
C    20.52000046  36.81000137  54.13999939
C    20.76000023  37.55000305  55.33000183
C    19.68000031  37.77000046  56.16000366
C    18.38999939  37.27000046  55.83000183
C    14.29999924  36.36000061  54.86000061
C    13.56999969  36.79999924  55.98999786
C    12.18000031  36.74000168  56.04999924
C    22.17000008  38.02000046  55.61000061
H    22.58184052  37.38093567  56.39107895
H    17.43000031  38.02000046  57.63999939
H    16.68000031  35.65000153  53.29000092
H    19.18000031  35.93000031  52.77000046
H    21.28000069  36.70000076  53.36999893
H    19.79999924  38.22999954  57.12999725
H    11.72999954  37.20000076  56.91999817
H    22.79999924  38.02999878  54.71000290
H    22.06999969  39.08000183  55.86999893
S    11.09000015  35.47000122  52.41000366
C     8.36999989  35.56000137  53.04999924
C     9.67000008  35.81999969  53.40999985
C    10.03999901  36.22999954  54.73999786
C     9.00000000  36.56999969  55.56999969
C     7.64999962  36.25000000  55.30000305
C     6.53999996  36.48999786  56.16000366
C     5.25000000  36.18999863  55.79000092
C     4.94999981  35.65999985  54.51000214
C     5.98999977  35.45000076  53.61999893
C     7.34000015  35.68999863  54.01000214
C    11.47999954  36.29000092  54.92000198
C    12.18000031  35.96999741  53.72000122
C    13.56999969  35.94000244  53.74000168
C     3.50000000  35.47999954  54.15000153
H     3.34394979  35.88431168  53.14986038
H     8.17000008  35.22999954  52.04000092
H     9.30999947  36.98999786  56.52999878
H     6.71000004  36.88999939  57.15999985
H     4.44000006  36.34000015  56.50000000
H     5.86999989  35.16999817  52.57999802
H    14.11000061  35.58000183  52.88000107
H     2.82000017  35.95999908  54.86999893
H     3.02999997  34.48999786  54.25000000
S    15.31999969  37.50999832  51.52000046
C    18.02999878  37.66999817  50.86999893
C    16.73999977  37.40999985  50.47000122
C    16.35000038  37.09000015  49.13000107
C    17.35999870  36.84000015  48.22000122
C    18.71000099  37.06000137  48.61000061
C    19.75000000  36.88999939  47.65999603
C    21.07999992  37.20999908  47.84000015
C    21.35999870  37.72999954  49.13000107
C    20.40999985  37.99000168  50.08999634
C    19.05999947  37.61000061  49.88999939
C    14.92000008  36.84000015  48.95000076
C    14.23999977  37.18000031  50.14999771
C    12.84999943  37.23999786  50.25000000
C    22.80999947  38.01000214  49.43999863
H    23.18420601  37.58636856  50.37198639
H    18.22999954  37.88000107  51.91999817
H    17.13000107  36.51000214  47.22000122
H    19.43000031  36.68000031  46.63999939
H    21.84000015  37.00999832  47.09999847
H    20.78000069  38.45999908  51.00999832
H    12.30000019  37.44999695  51.16000366
H    23.48999977  37.77000046  48.61000061
H    22.89999962  39.09000015  49.61999893
S    11.65999985  36.13999939  46.66999817
C     8.97000027  36.18000031  47.31999969
C    10.26000023  36.43000031  47.71999741
C    10.67000008  36.93000031  48.99000168
C     9.65999985  37.14999771  49.91000366
C     8.31999969  36.81000137  49.59999847
C     7.30000019  37.19000244  50.52000046
C     5.98000002  36.91999817  50.27000046
C     5.63000011  36.29000092  49.03999710
C     6.57000017  36.08000183  48.06000137
C     7.95000029  36.31000137  48.29999924
C    12.11999989  37.02000046  49.08000183
C    12.82999992  36.55999756  47.94000244
C    14.19999981  36.36000061  47.84999847
C     4.21999979  35.77999878  48.77999878
H     3.77705097  36.37298203  47.97983170
H     8.63000011  35.77000046  46.37000275
H     9.86999989  37.56000137  50.90000153
H     7.72000027  37.59999847  51.43000031
H     5.21000004  37.06000137  51.02000427
H     6.37000036  35.73999786  47.04999924
H    14.59000015  35.93000031  46.93000031
H     3.55999994  35.89999771  49.65000153
H     4.30999994  34.72999954  48.47999954
