96

S    15.18000031  37.22999954  57.15999985
C    17.88999939  37.06000137  56.44000244
C    16.57999992  36.70000076  56.20999908
C    16.18999863  36.12999725  54.95999908
C    17.17000008  35.88000107  54.01000214
C    18.53000069  36.04999924  54.31999969
C    19.52000046  36.02000046  53.29999924
C    20.85000038  36.34000015  53.50999832
C    21.18000031  36.90000153  54.77000427
C    20.25000000  37.15999985  55.75000000
C    18.93000031  36.65999985  55.56000137
C    14.75000000  36.11000061  54.79000092
C    14.06000042  36.63000107  55.91999817
C    12.68000031  36.65999985  56.05999756
C    22.56000137  37.44999695  55.05000305
H    23.07908249  36.91669846  55.84640121
H    18.13999939  37.76000214  57.22999954
H    16.92000008  35.75000000  52.95000076
H    19.15999985  35.77999878  52.29999924
H    21.52000046  36.40999985  52.67000198
H    20.38999939  37.73999786  56.65999985
H    12.28000069  37.07999802  56.97999954
H    23.12999916  37.21999741  54.13999939
H    22.43999863  38.51000214  55.31000137
S    11.59000015  35.34000015  52.42000198
C     8.92000008  35.27000046  53.13000107
C    10.18000031  35.73999786  53.41999817
C    10.46000004  36.27000046  54.72000122
C     9.43000031  36.54999924  55.59999847
C     8.11999989  36.11999893  55.28999710
C     7.09999990  36.04999924  56.27999878
C     5.88000011  35.47999954  55.98999786
C     5.59000015  35.04000092  54.66999817
C     6.57000017  34.97000122  53.69999695
C     7.88000011  35.36999893  54.09000015
C    11.90000057  36.27999878  54.95999908
C    12.57999992  35.75999832  53.82999802
C    13.96000004  35.66999817  53.72000122
C     4.15999985  34.81999969  54.23999786
H     3.67505813  35.56167603  53.60529327
H     8.71999931  34.90999985  52.11999893
H     9.59000015  36.74000168  56.65999985
H     7.39000034  36.36000061  57.28000259
H     5.13000011  35.36999893  56.77000046
H     6.34999990  34.69000244  52.67000198
H    14.42000008  35.28000259  52.81000137
H     3.51999998  34.73999786  55.13000107
H     4.05000019  33.84999847  53.75000000
S    15.57000065  37.65000153  51.30000305
C    18.27999878  37.70999908  50.59999847
C    16.98999977  37.34000015  50.28999710
C    16.68000031  36.79000092  49.00000000
C    17.70000076  36.70000076  48.06999969
C    19.02000046  37.13000107  48.34000015
C    20.10000038  37.07999802  47.42000198
C    21.38999939  37.40999985  47.76000214
C    21.71999931  37.79999924  49.09000015
C    20.71000099  37.77000046  50.01999664
C    19.34999847  37.56000137  49.68000031
C    15.25000000  36.74000168  48.76999664
C    14.55999947  37.02999878  49.98000336
C    13.17999935  37.06999969  50.08999634
C    23.13999939  38.23999786  49.36999893
H    23.67951775  37.51590729  49.98050308
H    18.54999924  38.08000183  51.59000015
H    17.47999954  36.40000153  47.04999924
H    19.86999893  36.79999924  46.38999939
H    22.14999962  37.56000137  47.00000000
H    20.94000053  37.99000168  51.05999756
H    12.71999931  37.43999863  51.00000000
H    23.69999886  38.61999893  48.50000000
H    22.93000031  39.18000031  49.89999771
S    11.98999977  36.04000092  46.44000244
C     9.28999996  35.88999939  47.14000320
C    10.55999947  36.32999802  47.43999863
C    10.97000027  36.74000168  48.75000000
C     9.89999962  36.88999939  49.62999725
C     8.56000042  36.51000214  49.38000107
C     7.53999996  36.54000092  50.37000275
C     6.21000004  36.32999802  50.05000305
C     5.92000008  35.79000092  48.76999664
C     6.86999989  35.72000122  47.77999878
C     8.22000027  36.05999756  48.06000137
C    12.41000080  36.83000183  48.94000244
C    13.09000015  36.55999756  47.72999573
C    14.47000027  36.44000244  47.63999939
C     4.51000023  35.27000046  48.54999924
H     4.05251598  35.87044907  47.76369858
H     9.18000031  35.38999939  46.18000031
H    10.01999950  37.21999741  50.65999985
H     7.90999985  36.83000183  51.35000229
H     5.42999983  36.31000137  50.80999756
H     6.57999992  35.33000183  46.81000137
H    14.89999962  36.08000183  46.70999908
H     3.96000004  35.26000214  49.50000000
H     4.57999992  34.20999908  48.29999924
