96

S    14.59000015  37.42000198  57.42000198
C    17.38000107  37.33000183  56.86999893
C    16.07999992  37.02000046  56.52999878
C    15.84000015  36.60000229  55.19000244
C    16.88999939  36.38000107  54.31000137
C    18.22000122  36.68999863  54.68000031
C    19.27999878  36.41999817  53.75999832
C    20.58000183  36.67000198  54.13999939
C    20.88000107  37.09000015  55.47000122
C    19.86999893  37.23999786  56.38999939
C    18.50000000  37.13999939  56.00999832
C    14.42000008  36.54999924  54.89999771
C    13.63000011  36.91999817  56.02000427
C    12.23999977  36.97000122  56.04000092
C    22.27000046  37.52999878  55.84999847
H    22.73975372  36.78977966  56.49769211
H    17.61999893  37.57999802  57.88999939
H    16.76000023  35.79000092  53.40000153
H    19.10000038  36.09000015  52.74000168
H    21.38000107  36.52000046  53.43000031
H    20.06000137  37.54000092  57.41000366
H    11.63000011  37.31999969  56.86000061
H    22.84000015  37.66999817  54.92000198
H    22.11999893  38.50000000  56.32999802
S    11.32999992  35.72999954  52.39999771
C     8.60000038  35.59000015  52.91999817
C     9.84000015  36.04999924  53.30999756
C    10.14999962  36.45000076  54.65000153
C     9.10000038  36.70000076  55.51000214
C     7.77999973  36.34999847  55.13000107
C     6.72999954  36.54999924  56.07999802
C     5.42999983  36.25000000  55.72999954
C     5.15999985  35.75999832  54.43000031
C     6.15999985  35.56000137  53.50000000
C     7.53000021  35.82999802  53.81000137
C    11.57999992  36.53000259  54.87999725
C    12.36999989  36.11000061  53.77999878
C    13.76000023  36.02000046  53.79000092
C     3.73000002  35.42000198  54.09000015
H     3.35967636  35.99684906  53.24253082
H     8.47000027  35.09999847  51.95999908
H     9.32999992  36.93000031  56.55000305
H     7.00000000  36.83000183  57.09000015
H     4.59999990  36.34000015  56.42000198
H     5.93999958  35.16999817  52.51999664
H    14.32000065  35.77000046  52.88999939
H     2.99000001  35.42000198  54.89999771
H     3.70000005  34.36000061  53.81000137
S    15.34999943  37.80999756  51.29000092
C    18.09000015  37.69000244  50.77000046
C    16.80999947  37.37999725  50.38000107
C    16.51000023  36.97000122  49.03999710
C    17.59000015  36.79999924  48.20000076
C    18.94000053  37.11000061  48.53000259
C    20.15000153  36.90000153  47.80000305
C    21.40999985  37.13000107  48.27999878
C    21.57999992  37.75000000  49.54999924
C    20.43999863  38.08000183  50.25000000
C    19.18000031  37.52000046  49.87999725
C    15.07999992  36.88999939  48.76999664
C    14.34999943  37.34000015  49.89999771
C    12.96000004  37.40999985  49.93000031
C    22.92000008  38.25999832  50.02999878
H    23.41932106  37.59661484  50.73618698
H    18.22999954  38.38000107  51.59999847
H    17.38000107  36.32999802  47.23999786
H    19.96000099  36.54000092  46.79000092
H    22.29999924  36.81000137  47.75000000
H    20.40999985  38.75000000  51.11000061
H    12.56999969  37.69000244  50.90999985
H    23.52999878  38.32999802  49.12000275
H    22.79000092  39.18999863  50.59000015
S    11.97000027  36.08000183  46.35000229
C     9.22999954  36.09999847  46.97000122
C    10.52000046  36.40999985  47.31999969
C    10.77000046  36.90999985  48.63999939
C     9.72999954  37.18000031  49.51000214
C     8.38000011  36.93000031  49.20000076
C     7.32999992  37.06000137  50.15999603
C     6.09000015  36.52000046  49.93000031
C     5.86999989  36.01000214  48.61999893
C     6.84000015  35.96999741  47.63999939
C     8.19000053  36.34000015  47.90000153
C    12.22000027  36.97999954  48.82999802
C    12.98999977  36.54999924  47.71999741
C    14.37999916  36.50000000  47.63000107
C     4.51000023  35.51000214  48.18999863
H     4.04748106  36.23580170  47.52112579
H     9.07999992  35.52000046  46.06999969
H    10.05000019  37.55000305  50.47999954
H     7.51999950  37.47999954  51.14999771
H     5.35000038  36.79999924  50.66999817
H     6.50000000  35.66999817  46.65999985
H    14.84000015  36.12999725  46.72000122
H     3.84999990  35.47000122  49.06999969
H     4.59999990  34.45999908  47.88000107
