96

S    15.26999950  37.59999847  57.22000122
C    17.97000122  37.73999786  56.49000168
C    16.68000031  37.38999939  56.17000198
C    16.39999962  36.56999969  55.01999664
C    17.40999985  36.25999832  54.12000275
C    18.71000099  36.74000168  54.36999893
C    19.82999992  36.45999908  53.54999924
C    21.11000061  36.88000107  53.82999802
C    21.35999870  37.59000015  55.04000092
C    20.36000061  37.72999954  55.97000122
C    19.03000069  37.38999939  55.61999893
C    14.96999931  36.31000137  54.93999863
C    14.21000004  36.86000061  56.00000000
C    12.84999943  37.13999939  55.96000290
C    22.79000092  37.83000183  55.47000122
H    23.30784798  37.18446350  56.17937851
H    18.13999939  38.20999908  57.45999908
H    17.23999977  35.70999908  53.20000076
H    19.69000053  35.77000046  52.71999741
H    21.88999939  36.59000015  53.13000107
H    20.50000000  38.09999847  56.98999786
H    12.36999989  37.80999756  56.66999817
H    23.35000038  37.84000015  54.52999878
H    22.82999992  38.81999969  55.93000031
S    11.78999996  35.51000214  52.50999832
C     9.09000015  35.70999908  53.04999924
C    10.36999893  36.06999969  53.40000153
C    10.69000053  36.70999908  54.65000153
C     9.68999958  36.90999985  55.58000183
C     8.34999943  36.63999939  55.20999908
C     7.31999969  36.88000107  56.16000366
C     6.02999973  36.47000122  55.90000153
C     5.75000000  35.84000015  54.65999985
C     6.69000053  35.72999954  53.64999771
C     8.05000019  36.04000092  53.95000076
C    12.13000107  36.63999939  54.86000061
C    12.86000061  35.97999954  53.83999634
C    14.23999977  35.82999802  53.85000229
C     4.36999989  35.29000092  54.38999939
H     3.77962494  35.90882874  53.71426773
H     8.82999992  35.11000061  52.16999817
H     9.98000050  37.13999939  56.59999847
H     7.55999994  37.20000076  57.16999817
H     5.29999971  36.59000015  56.69000244
H     6.30999994  35.43000031  52.68000031
H    14.80000019  35.63000107  52.94000244
H     3.75000000  35.11000061  55.27000046
H     4.44000006  34.27999878  53.95999908
S    15.67999935  37.73999786  51.51000214
C    18.26000023  37.85000229  50.65000153
C    16.97999954  37.45999908  50.34000015
C    16.61000061  36.84000015  49.09999847
C    17.60000038  36.63000107  48.15999985
C    18.89999962  37.13999939  48.34999847
C    19.86999893  36.86999893  47.35000229
C    21.18000031  37.21999741  47.60000229
C    21.54000092  37.88999939  48.80000305
C    20.62000084  38.00000000  49.81999969
C    19.23999977  37.70999908  49.62999725
C    15.15999985  36.83000183  49.01000214
C    14.55999947  37.29000092  50.20999908
C    13.17000008  37.34000015  50.20000076
C    22.95000076  38.36999893  49.06000137
H    23.45709610  37.82004929  49.85278702
H    18.52000046  38.41999817  51.53999710
H    17.38999939  36.25000000  47.15999985
H    19.52000046  36.38999939  46.44000244
H    21.91999817  36.97999954  46.84999847
H    20.79000092  38.41999817  50.80999756
H    12.61000061  37.77000046  51.02000427
H    23.55999947  38.18999863  48.16999817
H    22.85000038  39.45000076  49.22999954
S    11.97000027  35.84999847  46.72000122
C     9.30000019  35.91999817  47.34000397
C    10.57000065  36.27000046  47.71999741
C    10.92000008  36.88000107  48.96999741
C     9.92999935  37.19000244  49.88999939
C     8.63000011  36.77999878  49.52000046
C     7.51999950  36.97000122  50.40000153
C     6.25000000  36.52000046  50.10000229
C     5.95000029  35.81999969  48.90999603
C     6.98000002  35.54999924  48.04000092
C     8.28999996  36.05999756  48.31999969
C    12.35999966  36.84000015  49.18000031
C    13.04999924  36.38000107  48.02000046
C    14.44000053  36.38999939  47.88999939
C     4.51999998  35.40000153  48.61000061
H     4.17992306  35.98096466  47.75271988
H     9.15999985  35.40999985  46.38999939
H    10.17000008  37.47999954  50.90999985
H     7.75000000  37.50000000  51.31999969
H     5.51999998  36.61999893  50.89000320
H     6.67999983  35.13000107  47.09000015
H    14.88000011  36.06999969  46.95000076
H     3.93000007  35.65999985  49.48999786
H     4.53999996  34.31000137  48.47000122
