96

S    15.62000084  37.70000076  57.12999725
C    18.29000092  37.93999863  56.32999802
C    17.05999947  37.34999847  56.14999771
C    16.70999908  36.58000183  54.99000168
C    17.71999931  36.32999802  54.08000183
C    19.03000069  36.79999924  54.34000015
C    20.07999802  36.52000046  53.41999817
C    21.38000107  36.93999863  53.59000397
C    21.71999931  37.73999786  54.71000290
C    20.71000099  38.06000137  55.59999847
C    19.34999847  37.70000076  55.41999817
C    15.26999950  36.54999924  54.79000092
C    14.52999973  37.13000107  55.84999847
C    13.14000034  37.20000076  55.86999893
C    23.16999817  37.95000076  55.07999802
H    23.49762726  37.40158081  55.96316910
H    18.57999992  38.47999954  57.22999954
H    17.53999901  35.84000015  53.13000107
H    19.70999908  36.06999969  52.50999832
H    22.11999893  36.52000046  52.90999985
H    20.89999962  38.61000061  56.52000046
H    12.61999989  37.62000275  56.72999954
H    23.81000137  37.70999908  54.22000122
H    23.25000000  39.01000214  55.37000275
S    12.05999947  35.81000137  52.34000397
C     9.34000015  35.72000122  53.16999817
C    10.62999916  36.18000031  53.33000183
C    10.97000027  36.75000000  54.59999847
C    10.00000000  37.13999939  55.50000000
C     8.63000011  36.84000015  55.27999878
C     7.57000017  37.27999878  56.12999725
C     6.28000021  36.86999893  55.93000031
C     5.91000032  36.11999893  54.78000259
C     6.94999981  35.79000092  53.93000031
C     8.32999992  36.09000015  54.09999847
C    12.42000008  36.75000000  54.75999832
C    13.15999985  36.24000168  53.67000198
C    14.55000019  36.18000031  53.63999939
C     4.46000004  35.79000092  54.50000000
H     4.07584286  36.30221176  53.61786270
H     9.18000031  35.05000305  52.32999802
H    10.31000042  37.63999939  56.40999603
H     7.88999987  38.00000000  56.88000107
H     5.59000015  37.06000137  56.75000000
H     6.76999998  35.19000244  53.04000092
H    15.07999992  35.96999741  52.71999741
H     3.94000006  36.02999878  55.44000244
H     4.44999981  34.70000076  54.36999893
S    12.43000031  33.88000107  49.40999985
C     9.72000027  33.54000092  50.07999802
C    11.03999996  33.27000046  50.33000183
C    11.49000072  32.66999817  51.55000305
C    10.54999924  32.18000031  52.43000031
C     9.15999985  32.37999725  52.23999786
C     8.17000008  31.88999939  53.13999939
C     6.84999990  31.88999939  52.77999878
C     6.48999977  32.63999939  51.62000275
C     7.39000034  33.15000153  50.72999954
C     8.78000069  33.02999878  51.00999832
C    12.93000031  32.77000046  51.75000000
C    13.56999969  33.50000000  50.72000122
C    14.88999939  33.91999817  50.80999756
C     5.03999996  33.02000046  51.40999603
H     4.43284655  32.34856033  50.80284500
H     9.35000038  34.00000000  49.15999985
H    10.92000008  31.54999924  53.22999954
H     8.52000046  31.54999924  54.10999680
H     6.07999992  31.65999985  53.50999832
H     7.21000004  33.61999893  49.75999832
H    15.39999962  34.33000183  49.94999695
H     4.59000015  33.15999985  52.39999771
H     5.09000015  34.04000092  51.02000427
S    16.00000000  32.36999893  54.38000107
C    18.71000099  32.79999924  53.79000092
C    17.38000107  32.97000122  53.44999695
C    17.07999992  33.54999924  52.16999817
C    18.12000084  33.98999786  51.37000275
C    19.47999954  33.77000046  51.68000031
C    20.52000046  34.10000229  50.76000214
C    21.80999947  33.90999985  51.18999863
C    22.13000107  33.22999954  52.38999939
C    21.12999916  32.79999924  53.23999786
C    19.78999901  33.15000153  52.94000244
C    15.65000057  33.48999786  51.90000153
C    15.03000069  32.75000000  52.94000244
C    13.68000031  32.40999985  52.88000107
C    23.57999992  32.86999893  52.63999939
H    24.02185059  33.51139450  53.40254593
H    19.01000023  32.21999741  54.65999985
H    17.78000069  34.31000137  50.38999939
H    20.19000053  34.68000031  49.89999771
H    22.60000038  34.10000229  50.47000122
H    21.35000038  32.23999786  54.15000153
H    13.17000008  31.90000153  53.68000031
H    24.00000000  33.00000000  51.63999939
H    23.78999901  31.80999947  52.83000183
