96

S    14.81999969  37.16999817  57.43000031
C    17.53000069  37.49000168  56.77999878
C    16.26000023  37.11999893  56.39999771
C    16.05999947  36.54000092  55.11000061
C    17.15999985  36.32999802  54.29000092
C    18.45999908  36.70999908  54.66999817
C    19.62000084  36.60000229  53.83999634
C    20.86999893  37.00000000  54.25000000
C    21.04000092  37.69000244  55.47999954
C    19.95000076  37.84000015  56.30000305
C    18.65999985  37.36999893  55.93999863
C    14.61999989  36.45000076  54.87999725
C    13.82999992  36.74000168  56.02000427
C    12.46000099  36.93000031  56.04000092
C    22.39999962  38.25000000  55.80999756
H    22.90298843  37.64074707  56.56093979
H    17.69000053  37.86000061  57.78999710
H    17.04000092  35.96999741  53.27000046
H    19.48999977  36.08000183  52.90000153
H    21.73999977  36.86999893  53.61999893
H    19.90999985  38.36999893  57.25000000
H    11.97000027  37.27999878  56.95000076
H    22.98999977  38.27999878  54.88999939
H    22.26000023  39.29000092  56.12999725
S    11.36999989  35.61000061  52.49000168
C     8.61999989  35.54999924  53.25000000
C     9.94000053  35.81999969  53.53000259
C    10.26999950  36.32999802  54.82999802
C     9.32999992  36.45000076  55.83000183
C     7.97999954  36.18999863  55.50000000
C     6.90999985  36.37000275  56.42000198
C     5.60999966  36.02000046  56.18000031
C     5.23999977  35.45999908  54.93000031
C     6.23000050  35.31999969  53.97999573
C     7.57999992  35.68999863  54.20999908
C    11.71000004  36.47000122  54.94999695
C    12.44999981  36.00000000  53.83999634
C    13.83999920  36.06999969  53.77999878
C     3.77999997  35.22000122  54.64000320
H     3.31734419  35.89619064  53.92110443
H     8.34000015  35.12000275  52.29000092
H     9.57999992  36.63000107  56.88000107
H     7.16000032  36.65999985  57.43999863
H     4.85000038  36.24000168  56.93000031
H     5.88000011  34.87999725  53.04000092
H    14.37000084  35.58000183  52.97000122
H     3.26999998  35.20999908  55.61999893
H     3.61000013  34.20000076  54.27999878
S    15.54999924  37.77000046  51.69000244
C    18.26000023  37.95000076  50.93999863
C    16.97000122  37.56000137  50.65000153
C    16.63999939  37.00000000  49.38000107
C    17.61999893  36.86999893  48.40999985
C    18.95000076  37.22999954  48.73000336
C    20.07999802  37.16999817  47.87000275
C    21.35999870  37.55000305  48.18999863
C    21.68000031  38.15000153  49.43000031
C    20.62000084  38.25999832  50.30000305
C    19.30999947  37.81999969  49.99000168
C    15.19000053  36.88000107  49.26000214
C    14.45000076  37.36999893  50.35999680
C    13.05999947  37.50999832  50.35999680
C    23.09000015  38.63999939  49.69999695
H    23.58738708  38.02892685  50.45318604
H    18.63000107  38.29000092  51.90000153
H    17.46999931  36.48999786  47.39999771
H    19.90999985  36.88999939  46.83000183
H    22.06999969  37.63999939  47.36999893
H    20.75000000  38.65000153  51.31000137
H    12.58999920  37.88000107  51.26999664
H    23.65999985  38.70999908  48.76999664
H    22.98999977  39.65999985  50.08999634
S    11.98999977  36.09999847  46.79999924
C     9.22000027  35.95999908  47.50000000
C    10.52999973  36.22999954  47.81000137
C    10.88999939  36.84000015  49.06000137
C     9.82999992  37.04999924  49.91000366
C     8.46000004  36.79999924  49.65000153
C     7.35000038  37.00000000  50.52999878
C     6.05999994  36.72999954  50.13999939
C     5.78000021  36.06999969  48.92000198
C     6.80999994  35.81000137  48.04999924
C     8.14000034  36.19999695  48.39000320
C    12.31999969  37.02000046  49.27999878
C    13.03999996  36.61999893  48.13000107
C    14.42999935  36.54999924  48.13000107
C     4.35999966  35.65000153  48.59000397
H     3.96117377  36.44765091  47.96327209
H     8.96000004  35.54000092  46.53999710
H    10.06000042  37.49000168  50.87999725
H     7.59000015  37.42000198  51.51000214
H     5.22000027  36.88000107  50.80999756
H     6.58999968  35.34000015  47.09000015
H    15.01000023  36.18000031  47.29000092
H     3.86000013  35.38999939  49.52999878
H     4.34999990  34.70999908  48.02999878
