96

S    14.75999928  37.19000244  57.60000229
C    17.54999924  37.02000046  57.00000000
C    16.22999954  36.79999924  56.69000244
C    15.86999989  36.25000000  55.41999817
C    16.82999992  35.97999954  54.45999908
C    18.19000053  36.22999954  54.75000000
C    19.20999908  36.24000168  53.75999832
C    20.50000000  36.60000229  54.06999969
C    20.86999893  37.16999817  55.31000137
C    19.89999962  37.16999817  56.29000092
C    18.55999947  36.77000046  56.03000259
C    14.44000053  36.02000046  55.27999878
C    13.68000031  36.56999969  56.33999634
C    12.30000019  36.76000214  56.33999634
C    22.29000092  37.59999847  55.61000061
H    22.72316170  36.92540359  56.34850693
H    17.88999939  37.29000092  58.00000000
H    16.44000053  35.88999939  53.44999695
H    18.96000099  35.86999893  52.77000046
H    21.27000046  36.47000122  53.30999756
H    20.22999954  37.66999817  57.19999695
H    11.82999992  37.13999939  57.23999786
H    22.89999962  37.54000092  54.69999695
H    22.27000046  38.68000031  55.76000214
S    11.31000042  35.27000046  52.77000046
C     8.59000015  35.40000153  53.37999725
C     9.88000011  35.70999908  53.74000168
C    10.18000031  36.40000153  54.94999695
C     9.18000031  36.63000107  55.89000320
C     7.83999968  36.29000092  55.56999969
C     6.78999996  36.44000244  56.52000046
C     5.52999973  36.02000046  56.13999939
C     5.23000002  35.36000061  54.92000198
C     6.25000000  35.20999908  54.01000214
C     7.55999994  35.65000153  54.31999969
C    11.61000061  36.38000107  55.18000031
C    12.34000015  35.81999969  54.09999847
C    13.71000099  35.61000061  54.15000153
C     3.81999993  34.92000198  54.61000061
H     3.36731720  35.65560913  53.94512558
H     8.32999992  34.92000198  52.43000031
H     9.38000011  37.06999969  56.86000061
H     7.00000000  36.90999985  57.47000122
H     4.65999985  36.19999695  56.77000046
H     6.14000034  34.70000076  53.04999924
H    14.22000027  35.22999954  53.27000046
H     3.22000003  34.73999786  55.51000214
H     3.74000025  33.90999985  54.19000244
S    11.75000000  33.47999954  49.88999939
C     9.11999989  32.86000061  50.52000046
C    10.46000004  32.68000031  50.80999756
C    10.88000107  32.04999924  52.02000046
C     9.96000004  31.42000008  52.84999847
C     8.59000015  31.67000008  52.63000107
C     7.55999994  31.31999969  53.54999924
C     6.21999979  31.44000053  53.25000000
C     5.78000021  31.97000122  52.01000214
C     6.76999998  32.52999878  51.23000336
C     8.17000008  32.38999939  51.45999908
C    12.30999947  32.25000000  52.18999863
C    12.90999985  32.99000168  51.13999939
C    14.21000004  33.47999954  51.18000031
C     4.32999992  32.37999725  51.90000153
H     3.85293412  32.10230255  50.96010971
H     8.78999996  33.41999817  49.65000153
H    10.24000072  30.92000008  53.76999664
H     7.86000013  30.86999893  54.48999786
H     5.45000029  31.25999832  53.99000168
H     6.53999996  33.13000107  50.34999847
H    14.70000076  34.01000214  50.37000275
H     3.70000005  31.87000084  52.63999939
H     4.23999977  33.46999741  51.98999786
S    15.51000023  31.67000008  54.52999878
C    18.17000008  32.18000031  53.95000076
C    16.86000061  32.27000046  53.54999924
C    16.44000053  32.90999985  52.34000397
C    17.46000099  33.36999893  51.52000046
C    18.84000015  33.25999832  51.84999847
C    19.88000107  33.75999832  51.02000427
C    21.19999886  33.50000000  51.27999878
C    21.60000038  32.95000076  52.52999878
C    20.59999847  32.47999954  53.34999847
C    19.20999908  32.62000275  53.08000183
C    15.00000000  32.92000198  52.19999695
C    14.37999916  32.21999741  53.27000046
C    13.03999996  31.87000084  53.30999756
C    23.05999947  32.61000061  52.70999908
H    23.46647835  33.08779144  53.60139847
H    18.32999992  31.57999992  54.84000397
H    17.07999992  33.94000244  50.68000031
H    19.60000038  33.97000122  49.99000168
H    21.87000084  33.67000198  50.44000244
H    20.81000137  31.90000153  54.25000000
H    12.51999950  31.25000000  54.03999710
H    23.67000198  33.01000214  51.90000153
H    23.09999847  31.52000046  52.81999969
