96

S    15.14999962  37.37999725  57.55000305
C    17.84000015  37.14999771  56.88999939
C    16.53000069  36.95999908  56.52999878
C    16.10999870  36.65999985  55.19000244
C    17.09000015  36.70000076  54.20999908
C    18.45999908  36.70000076  54.55999756
C    19.47000122  36.65999985  53.56999969
C    20.75000000  37.04000092  53.92000198
C    21.22999954  37.21999741  55.25000000
C    20.22999954  37.29000092  56.18999863
C    18.86000061  37.00999832  55.90999985
C    14.67000008  36.55999756  55.10000229
C    13.99000072  37.04999924  56.24000168
C    12.61000061  37.20000076  56.26999664
C    22.65999985  37.63999939  55.50000000
H    23.12099075  37.07262802  56.30850220
H    18.19000053  37.43000031  57.88000107
H    16.79999924  36.60000229  53.15999985
H    19.17000008  36.54999924  52.52999878
H    21.35000038  37.20000076  53.02999878
H    20.45999908  37.45999908  57.22999954
H    12.05000019  37.36000061  57.18999863
H    23.18000031  37.49000168  54.54999924
H    22.60999870  38.72999954  55.61999893
S    11.47999954  35.93000031  52.63999939
C     8.89999962  35.79000092  53.36000061
C    10.11000061  36.36000061  53.68000031
C    10.46000004  36.88000107  54.97000122
C     9.44999981  36.97000122  55.90999985
C     8.13000011  36.54000092  55.66999817
C     7.03999996  36.63000107  56.58000183
C     5.75000000  36.22999954  56.31000137
C     5.59000015  35.61999893  55.04000092
C     6.57999992  35.54999924  54.08000183
C     7.90999985  35.95000076  54.36999893
C    11.90999985  36.93999863  55.08999634
C    12.57999992  36.44000244  53.94000244
C    13.94999981  36.22999954  53.94000244
C     4.23000002  35.09000015  54.64000320
H     3.59982657  35.76973724  54.06647110
H     8.69999981  35.15999985  52.50000000
H     9.68999958  37.33000183  56.90000153
H     7.39000034  37.04000092  57.52999878
H     4.98000002  36.38999939  57.05999756
H     6.40999985  35.23999786  53.04999924
H    14.61999989  36.09000015  53.09000015
H     3.68999982  34.83000183  55.56000137
H     4.38000011  34.18000031  54.06000137
S    15.31999969  38.02000046  51.37000275
C    18.02999878  38.18000031  50.65999985
C    16.75000000  37.79999924  50.33000183
C    16.36000061  37.30999756  49.05000305
C    17.38999939  37.14999771  48.13000107
C    18.71999931  37.54000092  48.40999985
C    19.76000023  37.22999954  47.48000336
C    21.05999947  37.44999695  47.87000275
C    21.42000008  38.11000061  49.08000183
C    20.43000031  38.36000061  50.00999832
C    19.06999969  38.06999969  49.69999695
C    14.92000008  37.19000244  48.88000107
C    14.22999954  37.47999954  50.07999802
C    12.84000015  37.50000000  50.13999939
C    22.88000107  38.34999847  49.36999893
H    23.34321976  37.77988434  50.17529297
H    18.20999908  38.68000031  51.59999847
H    17.15999985  36.53000259  47.27000427
H    19.54000092  36.61000061  46.62000275
H    21.86000061  37.11000061  47.22000122
H    20.55999947  38.86000061  50.97000122
H    12.39999962  37.95000076  51.02000427
H    23.45999908  38.15000153  48.46000290
H    22.95999908  39.40999985  49.65000153
S    11.71000004  36.52000046  46.44000244
C     9.04999924  36.12999725  47.28000259
C    10.29999924  36.65000153  47.50000000
C    10.67999935  36.98999786  48.83999634
C     9.72000027  37.19000244  49.81999969
C     8.40999985  36.70000076  49.59999847
C     7.42999983  36.81000137  50.63000107
C     6.10000038  36.58000183  50.37000275
C     5.73999977  36.04999924  49.09999847
C     6.69000053  35.84000015  48.11999893
C     8.05999947  36.19999695  48.29999924
C    12.11999989  37.11000061  49.00000000
C    12.81000042  36.77000046  47.81000137
C    14.19999981  36.81000137  47.74000168
C     4.30000019  35.88000107  48.69999695
H     3.89431047  36.58461761  47.97402954
H     8.78000069  35.75999832  46.30000305
H    10.01000023  37.47999954  50.81999969
H     7.71000004  37.25000000  51.59000015
H     5.23999977  36.93000031  50.93999863
H     6.30999994  35.40000153  47.21000290
H    14.63999939  36.61000061  46.77000046
H     3.71000004  35.95000076  49.62999725
H     4.23000002  34.86999893  48.29000092
