96

S    15.05000019  36.91999817  57.45999908
C    17.73999977  37.14999771  56.70000076
C    16.46000099  36.75000000  56.39999771
C    16.05999947  36.18000031  55.13999939
C    17.06999969  36.00000000  54.20999908
C    18.39999962  36.38000107  54.47000122
C    19.38999939  36.18999863  53.46000290
C    20.69999886  36.45999908  53.75999832
C    21.11000061  37.00999832  55.00000000
C    20.15999985  37.11999893  55.98999786
C    18.78000069  36.90000153  55.77000046
C    14.60999966  36.09999847  54.98000336
C    13.93000031  36.50000000  56.14999771
C    12.56000042  36.74000168  56.22000122
C    22.55000114  37.33000183  55.34000015
H    22.96302605  36.70334244  56.13044739
H    17.84000015  37.69000244  57.63999939
H    16.84000015  35.61999893  53.22000122
H    19.04000092  35.81999969  52.50000000
H    21.38999939  36.24000168  52.95000076
H    20.29000092  37.55000305  56.97999954
H    12.15999985  36.97000122  57.21000290
H    23.12000084  37.23999786  54.40999985
H    22.47999954  38.38999939  55.61999893
S    11.31999969  35.68999863  52.60000229
C     8.63000011  35.45999908  53.34999847
C     9.90999985  35.86000061  53.64999771
C    10.32999992  36.31000137  54.94999695
C     9.34000015  36.43000031  55.90999985
C     8.00000000  36.09000015  55.59000015
C     7.02000046  36.04999924  56.62000275
C     5.80999947  35.43999863  56.38999939
C     5.36000013  35.05000305  55.10000229
C     6.24000025  35.22999954  54.06000137
C     7.59999990  35.54000092  54.31999969
C    11.77000046  36.45000076  55.11000061
C    12.43999958  36.12999725  53.90999603
C    13.80000019  35.86999893  53.86000061
C     3.98999977  34.47000122  54.84000397
H     3.51410198  35.08085632  54.07287979
H     8.47999954  35.13000107  52.31999969
H     9.67000008  36.50000000  56.93999863
H     7.26999998  36.34999847  57.63000107
H     5.15999985  35.31999969  57.25999832
H     6.00000000  35.00000000  53.02000046
H    14.19999981  35.52000046  52.90999985
H     3.30999994  34.45999908  55.70000076
H     4.05999994  33.43000031  54.47999954
S    15.46000004  37.78000259  51.38999939
C    18.13999939  37.79000092  50.75000000
C    16.87999916  37.30999756  50.45000076
C    16.54999924  36.77999878  49.16999817
C    17.56000137  36.61000061  48.23999786
C    18.84000015  37.11999893  48.54000092
C    19.92000008  36.88999939  47.63999939
C    21.24000168  37.16999817  47.90999985
C    21.56999969  37.68000031  49.19000244
C    20.56999969  37.95000076  50.10000229
C    19.19999886  37.66999817  49.81999969
C    15.10000038  36.65999985  49.02999878
C    14.37000084  37.16999817  50.13000107
C    12.97999954  37.25000000  50.14999771
C    23.01000214  37.93999863  49.58000183
H    23.42985344  37.29954529  50.35565948
H    18.32999992  38.15000153  51.76000214
H    17.47999954  35.84000015  47.47000122
H    19.61000061  36.34999847  46.75000000
H    22.01000023  36.86000061  47.21000290
H    20.93000031  38.27000046  51.06999969
H    12.50000000  37.62000275  51.05999756
H    23.50000000  37.85000229  48.60000229
H    23.12999916  39.00000000  49.84000397
S    11.92000008  35.79999924  46.55000305
C     9.19000053  35.77000046  47.27000427
C    10.48999977  36.09999847  47.56000137
C    10.88000107  36.72000122  48.79000092
C     9.89000034  36.90999985  49.73999786
C     8.53999996  36.55999756  49.52999878
C     7.49000025  36.63000107  50.50000000
C     6.19999981  36.19999695  50.27999878
C     5.84999990  35.68999863  49.00000000
C     6.84999990  35.58000183  48.04999924
C     8.19000053  36.01000214  48.25000000
C    12.30999947  36.88000107  48.97999573
C    12.98999977  36.34999847  47.84999847
C    14.37999916  36.32999802  47.87000275
C     4.42000008  35.30999756  48.68999863
H     3.86620283  35.97739410  48.02970505
H     9.02000046  35.31999969  46.29000092
H    10.21000004  37.37999725  50.66999817
H     7.68000031  37.00000000  51.50000000
H     5.42000008  36.27000046  51.03000259
H     6.63000011  35.12000275  47.09000015
H    14.92000008  36.12999725  46.95000076
H     4.03999996  35.33000183  49.71000290
H     4.44999981  34.27999878  48.29999924
