96

S    14.82999992  37.27000046  57.50999832
C    17.56000137  37.49000168  56.76000214
C    16.28999901  37.02000046  56.52000046
C    15.95000076  36.41999817  55.27000046
C    16.97999954  36.18999863  54.36999893
C    18.31999969  36.56999969  54.62999725
C    19.37000084  36.40999985  53.68999863
C    20.66999817  36.70999908  54.02999878
C    20.96999931  37.40999985  55.22999573
C    19.96000099  37.65999985  56.11999893
C    18.63000107  37.21999741  55.87999725
C    14.52000046  36.22999954  55.11000061
C    13.76000023  36.77000046  56.18000031
C    12.38000011  36.81999969  56.22000122
C    22.36999893  37.78000259  55.66999817
H    22.86657524  37.04932785  56.30845261
H    17.82999992  37.97999954  57.69000244
H    16.61999893  35.75000000  53.43999863
H    19.12999916  36.02000046  52.70000076
H    21.52000046  36.58000183  53.36999893
H    20.12000084  38.18000031  57.06999969
H    11.92999935  37.29999924  57.09000015
H    22.88999939  37.93000031  54.72000122
H    22.32999992  38.75999832  56.14999771
S    11.32999992  35.20999908  52.76000214
C     8.64000034  34.84999847  53.53000259
C     9.85999966  35.45999908  53.70999908
C    10.26000023  36.17000198  54.88999939
C     9.22000027  36.37000275  55.77999878
C     7.88999987  35.96999741  55.47999954
C     6.90000010  36.19999695  56.46999741
C     5.58000040  35.86999893  56.25000000
C     5.21000004  35.18000031  55.06999969
C     6.15999985  34.81999969  54.13999939
C     7.53000021  35.13999939  54.36000061
C    11.69000053  36.27000046  55.13999939
C    12.43000031  35.81999969  54.01000214
C    13.81000042  35.73999786  54.00000000
C     3.82999992  34.59000015  54.87999725
H     3.35430145  35.14379883  54.07060242
H     8.56000042  34.29000092  52.60000229
H     9.40999985  36.70999908  56.79000092
H     7.13000011  36.76000214  57.36999893
H     4.80999994  36.15999985  56.97000122
H     5.89999962  34.43000031  53.15999985
H    14.35999966  35.29000092  53.18000031
H     3.24000001  34.70999908  55.79999924
H     3.97000027  33.52999878  54.62999725
S    12.05000019  33.34999847  49.66999817
C     9.44999981  32.69000244  50.34999847
C    10.77999973  32.69000244  50.70999908
C    11.26999950  32.16999817  51.95000076
C    10.34999943  31.56999969  52.78999710
C     8.97000027  31.55999947  52.49000168
C     7.95000029  31.12999916  53.37999725
C     6.58999968  31.15999985  53.20000076
C     6.17000008  31.80999947  52.01000214
C     7.09999990  32.27999878  51.11000061
C     8.51000023  32.14999771  51.26999664
C    12.71999931  32.29999924  52.02999878
C    13.22999954  33.09000015  50.97000122
C    14.55999947  33.48999786  50.96000290
C     4.69999981  32.04999924  51.73999786
H     4.35178328  31.86523056  50.72377777
H     9.15000057  33.15000153  49.40999985
H    10.62000084  31.15999985  53.75999832
H     8.31999969  30.82999992  54.36000061
H     5.78000021  30.90999985  53.88999939
H     6.65000010  32.62000275  50.18000031
H    14.96000099  34.01000214  50.10000229
H     4.15999985  31.34000015  52.37999725
H     4.36999989  33.04999924  52.04000092
S    16.14999962  31.94000053  54.27999878
C    18.76000023  32.55000305  53.54000092
C    17.42000008  32.70000076  53.29000092
C    16.82999992  33.34999847  52.15999985
C    17.67000008  33.95999908  51.24000168
C    19.05999947  33.84999847  51.44000244
C    19.97999954  34.36999893  50.48999786
C    21.35000038  34.20999908  50.61000061
C    21.84999847  33.59000015  51.77999878
C    21.02000046  33.06999969  52.75000000
C    19.61000061  33.20999908  52.61000061
C    15.39999962  33.15000153  52.02999878
C    14.89999962  32.34999847  53.09000015
C    13.56999969  31.94000053  53.08000183
C    23.31000137  33.80000305  52.09999847
H    23.59366226  33.72199249  53.14954758
H    19.25000000  31.97000122  54.31999969
H    17.26000023  34.50000000  50.38000107
H    19.51000023  34.94999695  49.69999695
H    22.06000137  34.70999908  49.94999695
H    21.25000000  32.52000046  53.66000366
H    13.12999916  31.47999954  53.95999908
H    23.42000008  34.83000183  51.75000000
H    23.88000107  33.08000183  51.49000168
