96

S    15.25000000  37.43999863  57.38999939
C    17.97999954  37.43999863  56.69000244
C    16.68000031  37.13000107  56.38000107
C    16.29999924  36.54000092  55.13000107
C    17.30999947  36.25999832  54.23999786
C    18.67000008  36.54999924  54.51000214
C    19.67000008  36.18999863  53.55999756
C    21.01000023  36.31999969  53.85000229
C    21.35000038  36.90999985  55.10000229
C    20.40999985  37.33000183  56.00999832
C    19.02000046  37.14999771  55.77000046
C    14.85000038  36.45000076  54.97000122
C    14.14000034  36.86999893  56.12999725
C    12.76999950  37.09999847  56.05999756
C    22.81999969  37.20000076  55.30000305
H    23.29862022  36.93568802  56.24295807
H    18.32999992  38.06000137  57.50999832
H    17.15999985  35.61999893  53.37999725
H    19.42000008  35.93000031  52.54000092
H    21.75000000  36.12999725  53.08000183
H    20.79000092  37.79000092  56.91999817
H    12.31999969  37.85000229  56.70000076
H    23.29000092  36.67000198  54.45999908
H    22.98000145  38.27999878  55.18000031
S    11.68000031  35.52000046  52.56999969
C     8.97000027  35.43000031  53.22999954
C    10.24000072  35.86999893  53.54000092
C    10.59999943  36.56999969  54.73999786
C     9.56999969  36.86999893  55.61999893
C     8.23999977  36.45000076  55.38000107
C     7.17999983  36.59000015  56.31999969
C     5.92000008  36.15000153  56.00000000
C     5.61999989  35.54999924  54.75000000
C     6.63000011  35.30999756  53.85000229
C     7.95000029  35.72999954  54.16999817
C    12.02999973  36.61999893  54.97000122
C    12.75000000  36.13999939  53.83999634
C    14.14000034  36.04999924  53.83999634
C     4.21999979  35.05000305  54.47000122
H     3.74906874  35.67790985  53.71365738
H     8.80000019  34.84999847  52.32999802
H     9.86999989  37.30999756  56.56999969
H     7.30999994  37.06000137  57.29000092
H     5.07000017  36.27000046  56.66999817
H     6.50000000  34.83000183  52.88000107
H    14.60000038  35.75000000  52.90000153
H     3.65999985  35.13000107  55.41999817
H     4.35999966  34.02000046  54.13000107
S    11.89000034  33.90000153  49.77000427
C     9.22999954  33.13999939  50.40999985
C    10.59000015  33.02000046  50.59000015
C    11.06999969  32.29000092  51.72999954
C    10.19000053  31.68000031  52.60000229
C     8.78999996  31.80000114  52.41000366
C     7.86000013  31.40999985  53.40999985
C     6.50000000  31.37000084  53.15999985
C     6.03999996  31.98999786  51.97999954
C     6.88000011  32.59000015  51.06999969
C     8.28999996  32.52000046  51.27999878
C    12.48999977  32.50000000  51.95000076
C    13.07999992  33.34999847  50.97000122
C    14.42000008  33.72000122  50.93999863
C     4.55000019  31.84000015  51.72999954
H     4.13760757  32.33060455  50.84833145
H     8.88000011  33.84000015  49.65999985
H    10.62999916  31.25000000  53.50000000
H     8.30000019  31.00000000  54.31000137
H     5.82999992  30.94000053  53.89999771
H     6.46000004  33.02000046  50.17000198
H    14.67000008  34.43000031  50.15999603
H     4.33999968  30.79999924  51.45999908
H     4.01999998  32.18000031  52.63000107
S    15.85999966  31.86000061  54.16999817
C    18.45999908  32.63999939  53.57999802
C    17.13999939  32.63000107  53.20999908
C    16.69999886  33.29999924  52.02000046
C    17.60000038  33.90999985  51.16000366
C    18.97999954  33.75000000  51.42000198
C    19.93999863  34.31000137  50.52999878
C    21.27000046  34.09000015  50.77999878
C    21.76000214  33.45999908  51.95999908
C    20.81999969  33.02999878  52.85999680
C    19.40999985  33.13999939  52.64999771
C    15.25000000  33.15000153  51.90999985
C    14.68999958  32.33000183  52.91999817
C    13.32999992  32.00999832  52.95000076
C    23.26000023  33.40999985  52.09999847
H    23.53079033  33.36011887  53.15464783
H    18.81999969  32.22999954  54.52000046
H    17.26000023  34.45000076  50.27999878
H    19.64999962  34.86999893  49.64000320
H    22.01999855  34.54999924  50.14999771
H    21.09999847  32.72999954  53.86000061
H    12.92000008  31.38999939  53.74000168
H    23.75999832  34.29000092  51.66999817
H    23.62999916  32.61000061  51.45000076
