96

S    14.88000011  36.77000046  57.39999771
C    17.64999962  36.98999786  56.77999878
C    16.36999893  36.58000183  56.45999908
C    16.06999969  36.17000198  55.12000275
C    17.11000061  36.05999756  54.20999908
C    18.43000031  36.47999954  54.48999786
C    19.55000114  36.18000031  53.67000198
C    20.82999992  36.44000244  54.09999847
C    21.04999924  37.22999954  55.27000046
C    19.97999954  37.47999954  56.09000397
C    18.64999962  37.06999969  55.79000092
C    14.65000057  36.12999725  54.82999802
C    13.89000034  36.60000229  55.93999863
C    12.53000069  36.88999939  55.93000031
C    22.46999931  37.69000244  55.50000000
H    23.17000961  36.96856308  55.92143631
H    17.90999985  37.43999863  57.74000168
H    16.97000122  35.40000153  53.36000061
H    19.40000153  35.79000092  52.67000198
H    21.70000076  36.12999725  53.54000092
H    20.20000076  38.04000092  56.98999786
H    12.03999996  37.21999741  56.84000015
H    22.93999863  38.09999847  54.59000015
H    22.32000160  38.54999924  56.17000198
S    11.42000008  35.51000214  52.42000198
C     8.71000004  35.43999863  53.15999985
C    10.00000000  35.81999969  53.43999863
C    10.39000034  36.43000031  54.68000031
C     9.40999985  36.70000076  55.61999893
C     8.05999947  36.45000076  55.31999969
C     7.03000021  36.77000046  56.25000000
C     5.71000004  36.58000183  55.90999985
C     5.36999989  35.82999802  54.75000000
C     6.34000015  35.40000153  53.88000107
C     7.69999981  35.73999786  54.12000275
C    11.84000015  36.55999756  54.75999832
C    12.56999969  36.09000015  53.63999939
C    13.93000031  35.79999924  53.68000031
C     3.95000005  35.40999985  54.41999817
H     3.37414527  36.04273224  53.74461365
H     8.47999954  34.87999725  52.25999832
H     9.67000008  37.19000244  56.56000137
H     7.30000019  37.11999893  57.23999786
H     4.92999983  37.07999802  56.46999741
H     6.17000008  34.87999725  52.94000244
H    14.42999935  35.43000031  52.78999710
H     3.37000012  35.30999756  55.34000015
H     4.05000019  34.41999817  53.95999908
S    11.54999924  33.70999908  49.59000015
C     8.84000015  33.11000061  50.22999573
C    10.19000053  32.97000122  50.45000076
C    10.64000034  32.19000244  51.56000137
C     9.72000027  31.75000000  52.50000000
C     8.32999992  31.97000122  52.36000061
C     7.39000034  31.44000053  53.27999878
C     6.05000019  31.57999992  53.01000214
C     5.59999990  32.36000061  51.90999985
C     6.48000002  32.80999756  50.96000290
C     7.88000011  32.63000107  51.16000366
C    12.09000015  32.27999878  51.72999954
C    12.71999931  33.13000107  50.79000092
C    14.09000015  33.38999939  50.79999924
C     4.11000013  32.54000092  51.70999908
H     3.81187701  32.22768021  50.70915985
H     8.52000046  33.68000031  49.36000061
H    10.11000061  31.01000023  53.20000076
H     7.77999973  30.89999962  54.13999939
H     5.26000023  31.21000099  53.66000366
H     6.21000004  33.25000000  50.00000000
H    14.51000023  33.97000122  49.98000336
H     3.51999998  32.16999817  52.55000305
H     3.89999986  33.61999893  51.69000244
S    15.36000061  31.65999985  54.16999817
C    18.02000046  32.23999786  53.61000061
C    16.69999886  32.36999893  53.25000000
C    16.26000023  33.06000137  52.06999969
C    17.23999977  33.59999847  51.25000000
C    18.60999870  33.38000107  51.52000046
C    19.63999939  33.65999985  50.58000183
C    20.95000076  33.45000076  50.93999863
C    21.35999870  32.86999893  52.16999817
C    20.38000107  32.50000000  53.06000137
C    19.02000046  32.70000076  52.71999741
C    14.80999947  32.93999863  51.90999985
C    14.19999981  32.15999985  52.91999817
C    12.86000061  31.81999969  52.80000305
C    22.79000092  32.37999725  52.29000092
H    23.38158417  32.75775909  53.12392426
H    18.38000107  31.61999893  54.43000031
H    16.90999985  34.10000229  50.34999847
H    19.30999947  34.20000076  49.68999863
H    21.63999939  33.84000015  50.20000076
H    20.56999969  31.90999985  53.95000076
H    12.34000015  31.37000084  53.63999939
H    23.28000069  32.70999908  51.37000275
H    22.76000023  31.28000069  52.32999802
