96

S    15.03000069  37.23999786  57.28000259
C    17.72999954  37.38999939  56.59000015
C    16.45000076  37.00000000  56.24000168
C    16.09000015  36.47999954  54.95999908
C    17.13999939  36.22999954  54.09000015
C    18.43000031  36.74000168  54.33000183
C    19.48999977  36.74000168  53.37999725
C    20.76999855  37.11999893  53.69999695
C    21.07999992  37.59999847  55.00000000
C    20.07999802  37.69000244  55.93999863
C    18.72999954  37.36999893  55.59000015
C    14.65000057  36.52000046  54.73999786
C    13.96999931  37.04000092  55.86999893
C    12.57999992  37.11000061  55.93000031
C    22.47999954  37.84000015  55.52999878
H    22.85705948  37.07876968  56.21297455
H    17.88999939  37.76000214  57.60000229
H    16.98999977  36.08000183  53.02000046
H    19.31999969  36.22999954  52.43000031
H    21.56999969  36.86000061  53.02000046
H    20.38000107  37.93999863  56.95000076
H    12.02000046  37.34000015  56.83000183
H    23.22999954  37.99000168  54.75000000
H    22.49000168  38.72000122  56.18999863
S    11.40999985  35.66999817  52.41000366
C     8.65999985  35.61999893  53.20000076
C     9.98999977  35.89999771  53.44999695
C    10.44000053  36.25000000  54.75999832
C     9.48000050  36.43000031  55.72999954
C     8.09000015  36.20999908  55.52999878
C     7.09999990  36.34000015  56.55000305
C     5.78999996  36.19999695  56.17000198
C     5.36000013  35.82999802  54.86999893
C     6.32000017  35.54000092  53.93000031
C     7.69000006  35.79000092  54.22000122
C    11.85999966  36.59000015  54.86000061
C    12.53999901  36.13999939  53.69999695
C    13.93000031  36.08000183  53.62999725
C     3.94000006  35.40999985  54.58000183
H     3.57160640  35.96258926  53.71569061
H     8.42000008  35.09000015  52.28000259
H     9.81000042  36.75000000  56.72000122
H     7.40999985  36.72000122  57.51999664
H     5.07000017  36.30000305  56.98999786
H     5.98999977  35.28000259  52.93000031
H    14.37000084  35.52999878  52.81000137
H     3.30000019  35.59999847  55.45000076
H     3.91000009  34.33000183  54.38999939
S    11.80999947  33.54999924  49.68000031
C     9.15000057  33.15999985  50.47999954
C    10.48999977  32.97000122  50.72000122
C    10.98999977  32.43000031  51.95000076
C    10.06999969  31.86000061  52.81000137
C     8.67999935  31.94999886  52.58999634
C     7.65999985  31.51000023  53.47999954
C     6.32000017  31.63000107  53.18000031
C     5.89999962  32.34000015  52.02000046
C     6.84000015  32.86999893  51.17000198
C     8.22000027  32.63000107  51.39999771
C    12.43999958  32.50000000  52.02999878
C    13.00000000  33.25000000  50.96000290
C    14.32999992  33.65000153  50.97999954
C     4.44999981  32.78000259  51.91999817
H     4.03662062  32.41651154  50.97920609
H     8.85000038  33.70999908  49.59000015
H    10.43000031  31.31000137  53.68000031
H     7.88999987  31.14000130  54.47000122
H     5.59999990  31.14999962  53.83999634
H     6.57000017  33.45999908  50.30000305
H    14.63000107  34.25000000  50.13000107
H     3.93000007  32.22999954  52.70999908
H     4.40000010  33.87000275  52.04999924
S    15.77000046  32.06999969  54.34000015
C    18.44000053  32.70999908  53.59000397
C    17.10000038  32.63999939  53.30999756
C    16.60000038  33.15000153  52.08000183
C    17.45000076  33.77000046  51.18000031
C    18.84000015  33.84999847  51.44000244
C    19.77000046  34.36000061  50.47999954
C    21.11000061  34.33000183  50.76000214
C    21.57999992  33.75999832  51.97000122
C    20.75000000  33.06000137  52.81000137
C    19.34999847  33.16999817  52.60000229
C    15.14000034  33.13999939  52.00000000
C    14.55000019  32.59999847  53.16999817
C    13.25000000  32.11999893  53.11000061
C    23.05999947  33.86000061  52.28000259
H    23.35266685  33.64585114  53.30790710
H    18.86000061  32.11000061  54.40000153
H    17.10000038  34.15000153  50.21999741
H    19.30999947  34.72999954  49.56999969
H    21.84999847  34.77000046  50.08999634
H    21.21000099  32.70999908  53.73000336
H    12.89999962  31.40999985  53.86000061
H    23.44000053  34.84000015  51.93999863
H    23.40999985  33.02999878  51.65000153
