96

S    14.78999996  37.40000153  57.02000046
C    17.50000000  37.14999771  56.46999741
C    16.20000076  36.86000061  56.09000397
C    15.81999969  36.34999847  54.80999756
C    16.82999992  36.02000046  53.93000031
C    18.18000031  36.34000015  54.19000244
C    19.25000000  36.25000000  53.26000214
C    20.48999977  36.77999878  53.50999832
C    20.76000023  37.38999939  54.77000427
C    19.79999924  37.36999893  55.75000000
C    18.47999954  36.90999985  55.47000122
C    14.37999916  36.43000031  54.58000183
C    13.68999958  36.93999863  55.70999908
C    12.30999947  37.04000092  55.84000015
C    22.11000061  38.02000046  55.02999878
H    22.65780067  37.39394379  55.73431778
H    17.60000038  37.70999908  57.38999939
H    16.59000015  35.59000015  52.95000076
H    18.95000076  35.75999832  52.32999802
H    21.21999931  36.77999878  52.70999908
H    20.05000114  37.86000061  56.68000031
H    11.82000065  37.36000061  56.76000214
H    22.75000000  38.16999817  54.15000153
H    21.98999786  39.04999924  55.38999939
S    11.18000031  35.47000122  52.29999924
C     8.46000004  35.59999847  53.04999924
C     9.78999996  35.77999878  53.34999847
C    10.14000034  36.30000305  54.64000320
C     9.19999981  36.76000214  55.54000092
C     7.83999968  36.50000000  55.26000214
C     6.85999966  36.65000153  56.27999878
C     5.59999990  36.11999893  56.11999893
C     5.15999985  35.70999908  54.84000397
C     6.07999992  35.58000183  53.81999969
C     7.46000004  35.88999939  54.01000214
C    11.57999992  36.51000214  54.77000427
C    12.23999977  36.04000092  53.61000061
C    13.61999989  35.96999741  53.48999786
C     3.75000000  35.23999786  54.56999969
H     3.36533594  35.61754227  53.62258530
H     8.03999996  35.09999847  52.18000031
H     9.50000000  37.15999985  56.50000000
H     7.23000002  37.00999832  57.23999786
H     5.07999992  36.18000031  57.06999969
H     5.84999990  35.15999985  52.84999847
H    14.11999893  35.34000015  52.76000214
H     3.12000012  35.61999893  55.38000107
H     3.68000007  34.15000153  54.56999969
S    15.36000061  37.72999954  51.52999878
C    18.06999969  37.95000076  50.79999924
C    16.77999878  37.59999847  50.47000122
C    16.43000031  36.97999954  49.22999954
C    17.39999962  36.61999893  48.30999756
C    18.76000023  36.93999863  48.56999969
C    19.79999924  36.70000076  47.63000107
C    21.07999992  37.11999893  47.90000153
C    21.34000015  37.88000107  49.08000183
C    20.36000061  38.04999924  50.02999878
C    19.03000069  37.59000015  49.81999969
C    15.01000023  36.65999985  49.15999985
C    14.27000046  37.13999939  50.26000214
C    12.88000011  37.15999985  50.31999969
C    22.78000069  38.27999878  49.31000137
H    23.28339386  37.53554535  49.92683411
H    18.30000114  38.32999802  51.79000092
H    17.20000076  36.04000092  47.41000366
H    19.59000015  36.24000168  46.65999985
H    21.86000061  36.65999985  47.29999924
H    20.53999901  38.62999725  50.93000031
H    12.35000038  37.75000000  51.05999756
H    23.21000099  38.52000046  48.33000183
H    22.78000069  39.27999878  49.75999832
S    11.82999992  35.52000046  46.90000153
C     9.07999992  35.75999832  47.35000229
C    10.36999893  36.02000046  47.76000214
C    10.71000004  36.55999756  49.05000305
C     9.68000031  36.86999893  49.91000366
C     8.34000015  36.60000229  49.52999878
C     7.23000002  37.02000046  50.31000137
C     5.92999983  36.75000000  49.92000198
C     5.65000010  35.94000244  48.79000092
C     6.67999983  35.65000153  47.93000031
C     8.01999950  36.02000046  48.25000000
C    12.15000057  36.63000107  49.23999786
C    12.92000008  36.02000046  48.20999908
C    14.29999924  36.05999756  48.09999847
C     4.28000021  35.36000061  48.50999832
H     3.79476595  36.00222015  47.77501297
H     8.82999992  35.29999924  46.39999771
H     9.85000038  37.31999969  50.87999725
H     7.36999989  37.43000031  51.30000305
H     5.13000011  36.90999985  50.63999939
H     6.47000027  35.13000107  47.00000000
H    14.86999989  35.72000122  47.23999786
H     3.65999985  35.20999908  49.40000153
H     4.42000008  34.36999893  48.04999924
