96

S    15.03000069  37.43999863  57.38999939
C    17.72999954  37.54000092  56.72000122
C    16.45000076  37.18000031  56.36000061
C    16.11999893  36.61000061  55.08999634
C    17.13999939  36.40999985  54.18000031
C    18.47999954  36.76000214  54.50000000
C    19.48999977  36.54999924  53.52000427
C    20.76999855  36.97999954  53.79000092
C    21.07000160  37.73999786  54.94999695
C    20.09000015  37.86000061  55.90000153
C    18.77000046  37.36000061  55.77000046
C    14.67000008  36.50000000  54.95999908
C    13.93000031  36.97000122  56.06999969
C    12.55000019  37.02000046  56.12999725
C    22.53000069  38.04999924  55.20000076
H    22.91329193  37.54603958  56.08724976
H    17.94999886  38.08000183  57.63999939
H    17.06999969  36.29000092  53.09999847
H    19.12999916  36.12999725  52.58999634
H    21.60000038  36.76000214  53.11999893
H    20.40999985  38.18999863  56.88999939
H    12.07999992  37.52000046  56.97999954
H    23.15000153  37.86000061  54.31999969
H    22.59000015  39.13999939  55.24000168
S    11.46000004  35.84000015  52.50999832
C     8.78999996  35.79999924  53.09999847
C    10.03999901  36.22000122  53.48999786
C    10.32999992  36.70000076  54.79999924
C     9.31999969  36.81000137  55.75000000
C     7.99000025  36.58000183  55.34000015
C     6.90000010  36.65999985  56.25999832
C     5.63000011  36.27000046  55.90999985
C     5.36000013  35.77000046  54.61000061
C     6.39999962  35.72000122  53.72000122
C     7.73999977  36.09000015  54.01000214
C    11.77000046  36.68999863  55.01999664
C    12.50000000  36.27000046  53.88000107
C    13.89000034  36.17000198  53.83999634
C     4.00000000  35.22000122  54.23999786
H     3.37499046  35.90893173  53.67180634
H     8.63000011  35.29000092  52.15000153
H     9.53999996  37.06000137  56.79000092
H     7.21000004  36.84999847  57.28000259
H     4.76999998  36.38000107  56.56999969
H     6.19999981  35.20999908  52.77999878
H    14.46000004  36.02999878  52.93000031
H     3.51999998  34.94999695  55.19000244
H     4.07999992  34.34000015  53.59000397
S    11.85999966  33.75999832  49.50000000
C     9.15999985  33.31999969  50.06999969
C    10.47999954  33.15999985  50.43000031
C    10.88000107  32.49000168  51.63999939
C     9.81999969  32.09000015  52.43000031
C     8.43999958  32.27999878  52.15000153
C     7.39000034  31.90999985  53.02999878
C     6.06999969  31.98999786  52.63000107
C     5.69999981  32.43000031  51.32999802
C     6.71000004  32.93000031  50.54999924
C     8.09000015  32.90999985  50.90000153
C    12.30999947  32.62000275  51.84000015
C    12.97000027  33.38999939  50.84000015
C    14.32999992  33.67000198  50.84999847
C     4.25000000  32.56000137  50.90999985
H     3.88837051  31.65947151  50.41364288
H     8.89000034  33.56999969  49.05000305
H    10.07999992  31.45999908  53.27999878
H     7.62000036  31.38999939  53.95000076
H     5.32000017  31.50000000  53.23999786
H     6.38999987  33.27999878  49.56999969
H    14.77000046  34.00000000  49.92000198
H     3.68999982  32.75000000  51.83000183
H     4.25000000  33.43000031  50.25000000
S    15.62999916  32.19000244  54.20999908
C    18.37000084  32.72000122  53.63999939
C    17.02999878  32.84000015  53.34000015
C    16.56999969  33.44000244  52.11999893
C    17.52000046  33.88000107  51.22000122
C    18.89999962  33.81999969  51.55000305
C    19.92000008  34.36000061  50.72000122
C    21.27000046  34.27999878  50.98999786
C    21.70000076  33.68999863  52.21000290
C    20.75000000  33.23999786  53.11000061
C    19.37000084  33.22000122  52.77000046
C    15.11999989  33.38000107  51.97999954
C    14.42999935  32.70999908  53.02000046
C    13.10999966  32.27999878  52.93000031
C    23.13999939  33.25999832  52.36000061
H    23.66910362  33.67470169  53.21800232
H    18.71000099  32.14999771  54.48999786
H    17.28999901  34.11000061  50.18000031
H    19.60000038  34.77999878  49.77000427
H    21.94999886  34.66999817  50.25000000
H    21.11000061  32.69000244  53.96999741
H    12.65999985  31.80000114  53.80000305
H    23.71999931  33.55999756  51.46999741
H    23.13999939  32.16999817  52.29999924
