96

S    14.75999928  37.34999847  57.35000229
C    17.50000000  37.20000076  56.79999924
C    16.21000099  36.90999985  56.42000198
C    15.86999989  36.50000000  55.08999634
C    16.90000153  36.29000092  54.20000076
C    18.25000000  36.54000092  54.55999756
C    19.40000153  36.27999878  53.75000000
C    20.66999817  36.54000092  54.20000076
C    20.92000008  37.23999786  55.40999985
C    19.85000038  37.49000168  56.24000168
C    18.54999924  37.06999969  55.86000061
C    14.44000053  36.52000046  54.79999924
C    13.76000023  37.06999969  55.91999817
C    12.36999989  37.18000031  55.93000031
C    22.27000046  37.86999893  55.70000076
H    22.83115768  37.22360229  56.37481308
H    17.64000130  37.70999908  57.75000000
H    16.82999992  35.58000183  53.36999893
H    19.27999878  35.82999802  52.77000046
H    21.54000092  36.44000244  53.55999756
H    19.97999954  37.97999954  57.19999695
H    11.90999985  37.36000061  56.90000153
H    22.95000076  37.93000031  54.84000397
H    22.20000076  38.87000275  56.14999771
S    11.18999958  35.68999863  52.47000122
C     8.52999973  35.40999985  53.30999756
C     9.81999969  35.77999878  53.60000229
C    10.18000031  36.38000107  54.85000229
C     9.15000057  36.50000000  55.77000046
C     7.81000042  36.15000153  55.50000000
C     6.72999954  36.22000122  56.43000031
C     5.46000004  35.88000107  56.05999756
C     5.05000019  35.50000000  54.75000000
C     6.11999989  35.22999954  53.90999603
C     7.46000004  35.59999847  54.22000122
C    11.59999943  36.70999908  54.86000061
C    12.30999947  36.25000000  53.73000336
C    13.68999958  36.06999969  53.70999908
C     3.68000007  34.99000168  54.40000153
H     3.21663094  35.53891373  53.58019257
H     8.42000008  34.90000153  52.35000229
H     9.39000034  36.86999893  56.76000214
H     6.78999996  36.45999908  57.49000168
H     4.74000025  35.81999969  56.86999893
H     5.82999992  34.90000153  52.91999817
H    14.21000004  35.59999847  52.88000107
H     3.05000019  35.11000061  55.28999710
H     3.68999982  33.88999939  54.36000061
S    15.57000065  37.63000107  51.33999634
C    18.30000114  37.50000000  50.79000092
C    17.01000023  37.23999786  50.38999939
C    16.61999893  36.84000015  49.06999969
C    17.63000107  36.67000198  48.13999939
C    18.96999931  36.93000031  48.52000427
C    19.98999977  36.95000076  47.52999878
C    21.31000137  37.14999771  47.88000107
C    21.63000107  37.57999802  49.19000244
C    20.68000031  37.73999786  50.15999603
C    19.32999992  37.42000198  49.81999969
C    15.17000008  36.76000214  48.90999603
C    14.44000053  37.23999786  50.01999664
C    13.05999947  37.33000183  50.13999939
C    23.06999969  37.86000061  49.56999969
H    23.45454216  37.23334122  50.37468719
H    18.48999977  37.95999908  51.76000214
H    17.51000023  36.37000275  47.09999847
H    19.67000008  36.79000092  46.50000000
H    22.06000137  36.98999786  47.11000061
H    20.86000061  37.97999954  51.20999908
H    12.61999989  37.63999939  51.09000397
H    23.74000168  37.56999969  48.75000000
H    23.25000000  38.91999817  49.79999924
S    11.89000034  36.02999878  46.59000015
C     9.15000057  36.08000183  47.29999924
C    10.46000004  36.37000275  47.58999634
C    10.85999966  36.84999847  48.88000107
C     9.85999966  37.13999939  49.79000092
C     8.50000000  36.83000183  49.56999969
C     7.53000021  37.02000046  50.59999847
C     6.21000004  36.70999908  50.34000015
C     5.84999990  36.15999985  49.09000015
C     6.77999973  35.95000076  48.09999847
C     8.14999962  36.25999832  48.29999924
C    12.30000019  36.88000107  49.06000137
C    13.00000000  36.58000183  47.85999680
C    14.37999916  36.41999817  47.81000137
C     4.41000032  35.68999863  48.99000168
H     3.96986818  36.15852737  48.10973740
H     8.80999947  35.54000092  46.42000198
H    10.15999985  37.47000122  50.77999878
H     7.90000010  37.27000046  51.59000015
H     5.56999969  36.60000229  51.20999908
H     6.50000000  35.36000061  47.22999954
H    14.78999996  35.94000244  46.93000031
H     3.88999987  35.89999771  49.93000031
H     4.46999979  34.61000061  48.86000061
