96

S    15.29000092  37.54000092  57.37999725
C    17.95999908  37.70999908  56.59999847
C    16.68000031  37.27999878  56.31000137
C    16.38000107  36.61000061  55.08999634
C    17.29999924  36.45000076  54.08000183
C    18.59000015  36.97999954  54.33000183
C    19.67000008  36.77000046  53.41999817
C    20.95999908  37.14999771  53.72000122
C    21.28999901  37.78000259  54.93999863
C    20.28000069  37.95999908  55.86000061
C    18.96000099  37.47999954  55.63000107
C    14.93000031  36.44000244  55.00999832
C    14.19999981  36.88000107  56.13999939
C    12.82999992  37.07999802  56.09000397
C    22.67999840  38.25999832  55.31000137
H    23.19959831  37.62651443  56.02890015
H    18.36000061  38.18999863  57.49000168
H    17.12000084  35.75999832  53.25000000
H    19.55999947  36.15000153  52.54000092
H    21.65999985  36.88999939  52.93000031
H    20.51000214  38.55999756  56.73999786
H    12.28000069  37.40999985  56.97000122
H    23.40999985  38.52999878  54.54000092
H    22.42000198  39.24000168  55.72999954
S    11.80999947  35.75000000  52.50000000
C     9.09000015  35.84999847  52.95000076
C    10.34999943  36.13999939  53.41999817
C    10.67000008  36.63000107  54.72999954
C     9.67000008  36.77999878  55.65999985
C     8.34000015  36.48999786  55.26000214
C     7.21000004  36.67000198  56.11000061
C     5.92999983  36.41999817  55.68999863
C     5.69999981  35.72000122  54.47000122
C     6.76000023  35.56000137  53.60000229
C     8.07999992  35.98999786  53.94000244
C    12.10999966  36.67000198  54.95999908
C    12.86000061  36.27000046  53.82999802
C    14.25000000  36.20999908  53.81000137
C     4.32000017  35.19000244  54.19000244
H     3.64867520  35.81133270  53.59723663
H     8.85000038  35.54000092  51.93999863
H     9.86999989  37.04999924  56.70000076
H     7.44000006  36.91999817  57.14000320
H     5.13000011  36.61999893  56.38999939
H     6.63999987  35.06999969  52.63999939
H    14.82999992  36.06999969  52.90000153
H     3.86999989  35.15000153  55.20000076
H     4.41000032  34.17000198  53.80000305
S    11.72000027  33.77999878  49.56999969
C     9.03999996  33.09999847  50.11000061
C    10.36999893  33.02999878  50.45000076
C    10.81999969  32.47000122  51.69000244
C     9.94000053  31.84000015  52.56000137
C     8.56999969  31.91999817  52.22000122
C     7.51999950  31.57999992  53.13000107
C     6.19000006  31.81999969  52.88000107
C     5.75999975  32.34000015  51.63000107
C     6.71999979  32.56000137  50.66999817
C     8.10000038  32.52999878  51.00999832
C    12.25000000  32.57999802  51.93000031
C    12.84999943  33.22999954  50.81999969
C    14.18000031  33.62999725  50.84000015
C     4.30000019  32.65999985  51.38999939
H     3.98771501  32.18447495  50.46023941
H     8.71000004  33.72999954  49.29000092
H    10.29999924  31.61000061  53.55999756
H     7.90999985  31.14999962  54.05000305
H     5.51000023  31.42999840  53.62999725
H     6.42000008  33.02999878  49.72999954
H    14.60999966  33.87000275  49.86999893
H     3.79999995  32.29999924  52.29999924
H     4.21000004  33.75000000  51.31999969
S    15.59000015  32.00000000  54.09000015
C    18.22999954  32.63999939  53.54000092
C    16.90999985  32.78000259  53.20000076
C    16.45000076  33.47999954  52.04000092
C    17.42000008  34.04999924  51.24000168
C    18.78999901  33.77999878  51.45999908
C    19.80999947  34.29000092  50.61000061
C    21.14999962  34.22999954  50.93000031
C    21.54999924  33.68999863  52.18000031
C    20.62000084  33.09000015  52.98999786
C    19.23999977  33.15000153  52.68000031
C    14.98999977  33.41999817  51.95999908
C    14.37000084  32.63999939  52.97000122
C    13.04999924  32.20999908  53.02000046
C    23.01000214  33.36000061  52.43000031
H    23.40062332  33.70090866  53.38880157
H    18.40999985  32.16999817  54.51000214
H    17.15999985  34.72999954  50.43000031
H    19.47000122  34.86999893  49.75000000
H    21.86000061  34.71999741  50.27999878
H    20.93000031  32.50999832  53.86000061
H    12.64000034  31.54999924  53.77999878
H    23.59000015  33.77000046  51.59000015
H    23.00000000  32.27000046  52.41000366
