96

S    15.36000061  37.26000214  57.42000198
C    18.06999969  37.54000092  56.59999847
C    16.77999878  37.13000107  56.36000061
C    16.42000008  36.51000214  55.12000275
C    17.35000038  36.44000244  54.09000015
C    18.68000031  36.79999924  54.38000107
C    19.73999977  36.76000214  53.41999817
C    21.02999878  37.18000031  53.63999939
C    21.38000107  37.78000259  54.87999725
C    20.39999962  37.90000153  55.84000015
C    19.07999992  37.42000198  55.61000061
C    14.98000050  36.40000153  54.99000168
C    14.22999954  36.86999893  56.10000229
C    12.84999943  36.84000015  56.22000122
C    22.79000092  38.25999832  55.13999939
H    23.35562134  37.61561966  55.81301498
H    18.25000000  37.95999908  57.58999634
H    17.05999947  36.08000183  53.09999847
H    19.60000038  36.36000061  52.42000198
H    21.84000015  36.86000061  52.98999786
H    20.55000114  38.29000092  56.84000015
H    12.39999962  37.30999756  57.09000015
H    23.34000015  38.59000015  54.25000000
H    22.70000076  39.20000076  55.68999863
S    11.82000065  35.61999893  52.57999802
C     9.07999992  35.63999939  53.27999878
C    10.39000034  35.98999786  53.54999924
C    10.69000053  36.52000046  54.85000229
C     9.61000061  36.86999893  55.63999939
C     8.27000046  36.47999954  55.44000244
C     7.28999996  36.45000076  56.46999741
C     6.10000038  35.81000137  56.25000000
C     5.79999971  35.25000000  54.97000122
C     6.71000004  35.30999756  53.94000244
C     8.02999973  35.77000046  54.22000122
C    12.13000107  36.50000000  55.06999969
C    12.84999943  35.94000244  53.97999573
C    14.23999977  35.95999908  53.88999939
C     4.41000032  34.66999817  54.84000397
H     3.88421297  35.33078384  54.15079498
H     8.85999966  34.94999695  52.47000122
H     9.96000004  37.13999939  56.63999939
H     7.50000000  36.72000122  57.50999832
H     5.33999968  35.72999954  57.02000046
H     6.48000002  34.77999878  53.02000046
H    14.70000076  35.45000076  53.04000092
H     3.94000006  34.54000092  55.81999969
H     4.55999994  33.69999695  54.34000015
S    11.96000004  33.50000000  49.72000122
C     9.34000015  32.95999908  50.43000031
C    10.67999935  32.77000046  50.70000076
C    11.03000069  32.13000107  51.93000031
C    10.05000019  31.65999985  52.77999878
C     8.67000008  31.75000000  52.47000122
C     7.62000036  31.25999832  53.30999756
C     6.32000017  31.38000107  52.87000275
C     5.96000004  32.19000244  51.76000214
C     6.94999981  32.77000046  51.00999832
C     8.31999969  32.44999695  51.26999664
C    12.46000099  32.33000183  52.09000015
C    13.07000065  33.02000046  51.02000427
C    14.32999992  33.61000061  51.11000061
C     4.53000021  32.63000107  51.50000000
H     4.16624022  32.14498520  50.59416199
H     9.01000023  33.65999985  49.66999817
H    10.31000042  31.17000198  53.72000122
H     7.76000023  30.81000137  54.29000092
H     5.46000004  31.14000130  53.47999954
H     6.70000029  33.62999725  50.40000153
H    14.75000000  34.27000046  50.34999847
H     3.86000013  32.36000061  52.31999969
H     4.46999979  33.72999954  51.51000214
S    15.82999992  32.04000092  54.43000031
C    18.47999954  32.59999847  53.66000366
C    17.13000107  32.76000214  53.44999695
C    16.57999992  33.48999786  52.34000397
C    17.46000099  34.01000214  51.42000198
C    18.86000061  33.88999939  51.59999847
C    19.84000015  34.31999969  50.65999985
C    21.17000198  34.13000107  50.93999863
C    21.67000008  33.48999786  52.09999847
C    20.76000023  32.95000076  52.97999954
C    19.37999916  33.20999908  52.76000214
C    15.14999962  33.27999878  52.19999695
C    14.59000015  32.52000046  53.25000000
C    13.25000000  32.13999939  53.22999954
C    23.12999916  33.15000153  52.36000061
H    23.47967529  33.52108765  53.32339096
H    18.81999969  32.04999924  54.52999878
H    17.07999992  34.47000122  50.51000214
H    19.56999969  34.86999893  49.75999832
H    21.80000114  34.70000076  50.26000214
H    21.09999847  32.27999878  53.75999832
H    12.76000023  31.73000145  54.10999680
H    23.81000137  33.50000000  51.56999969
H    23.28000069  32.06999969  52.38999939
