96

S    15.19000053  37.34000015  57.61000061
C    17.92000008  37.65000153  56.84000015
C    16.62999916  37.26000214  56.58000183
C    16.28999901  36.68000031  55.31000137
C    17.28000069  36.30000305  54.43000031
C    18.60999870  36.72000122  54.68999863
C    19.63999939  36.61000061  53.72000122
C    20.95999908  36.91999817  53.96999741
C    21.30000114  37.52000046  55.20999908
C    20.32999992  37.68000031  56.17000198
C    18.96000099  37.40000153  55.90999985
C    14.85000038  36.51000214  55.15999603
C    14.09999943  36.74000168  56.33999634
C    12.71999931  36.88000107  56.38999939
C    22.75000000  37.79000092  55.54000092
H    23.01316261  37.26367569  56.45751190
H    18.20000076  37.90000153  57.85999680
H    17.17000008  36.09000015  53.36999893
H    19.32999992  36.22000122  52.75000000
H    21.63000107  36.81999969  53.11999893
H    20.59000015  37.95999908  57.18999863
H    12.18000031  37.11999893  57.29999924
H    23.51000023  37.65000153  54.75000000
H    22.86000061  38.84000015  55.80999756
S    11.67000008  36.11999893  52.65999603
C     8.93000031  35.96999741  53.22999954
C    10.19999981  36.27000046  53.63999939
C    10.52999973  36.65000153  54.99000168
C     9.48999977  36.83000183  55.87999725
C     8.15999985  36.54000092  55.51000214
C     7.13000011  36.59000015  56.50000000
C     5.86000013  36.18999863  56.13999939
C     5.58000040  35.77000046  54.80999756
C     6.54999971  35.70000076  53.83999634
C     7.88000011  36.06999969  54.18000031
C    11.97000027  36.63999939  55.24000168
C    12.71000004  36.31999969  54.08000183
C    14.09000015  36.13999939  54.03999710
C     4.13000011  35.51000214  54.47999954
H     3.75245786  36.22946930  53.75341034
H     8.65999985  35.56999969  52.25999832
H     9.67000008  37.00999832  56.93000031
H     7.31999969  36.70999908  57.56000137
H     5.05999994  36.22000122  56.86999893
H     6.30999994  35.42000198  52.81999969
H    14.63999939  35.77000046  53.18000031
H     3.51000023  35.61999893  55.38000107
H     4.03999996  34.52000046  54.02999878
S    11.31999969  33.98999786  49.65999985
C     8.64999962  33.50000000  50.34999847
C     9.98000050  33.18000031  50.50000000
C    10.46000004  32.54000092  51.69000244
C     9.55000019  31.94000053  52.55000305
C     8.17000008  32.22999954  52.43999863
C     7.13000011  31.54999924  53.13000107
C     5.78999996  31.61999893  52.81000137
C     5.42000008  32.47000122  51.72999954
C     6.35999966  33.15999985  51.00000000
C     7.73999977  33.06999969  51.35000229
C    11.89000034  32.69000244  51.90000153
C    12.50000000  33.47999954  50.87999725
C    13.81000042  33.90999985  50.98999786
C     3.96000004  32.70999908  51.42000198
H     3.69600987  31.87522125  50.77072906
H     8.34000015  34.05999756  49.47000122
H     9.77999973  31.11000061  53.20000076
H     7.46000004  30.95000076  53.96999741
H     4.98000002  31.09999847  53.30999756
H     6.03999996  33.75000000  50.13999939
H    14.21000004  34.63000107  50.28999710
H     3.35999990  32.73999786  52.34000397
H     3.84999990  33.65999985  50.86999893
S    15.26999950  32.00000000  54.10999680
C    17.92000008  32.68000031  53.57999802
C    16.59000015  32.79000092  53.22999954
C    16.10000038  33.48999786  52.08000183
C    17.06999969  34.05999756  51.27999878
C    18.45000076  33.95000076  51.56000137
C    19.47999954  34.57999802  50.79000092
C    20.81999969  34.43000031  51.05999756
C    21.27000046  33.72999954  52.21000290
C    20.29999924  33.13999939  52.98999786
C    18.89999962  33.25000000  52.72999573
C    14.65999985  33.31000137  51.93000031
C    14.04999924  32.54000092  52.94000244
C    12.68000031  32.27000046  52.97999954
C    22.75000000  33.61000061  52.48000336
H    23.12719727  33.76657104  53.49060059
H    18.25000000  32.23999786  54.51000214
H    16.81999969  34.57999802  50.35999680
H    19.22000122  35.12000275  49.88999939
H    21.60000038  34.93000031  50.48999786
H    20.55999947  32.50000000  53.82999802
H    12.25000000  31.61999893  53.73000336
H    23.18000031  34.33000183  51.77999878
H    23.09000015  32.61000061  52.19999695
