96

S    15.06999969  37.45999908  57.43000031
C    17.79000092  37.37999725  56.79000092
C    16.50000000  37.04000092  56.45999908
C    16.14999962  36.31999969  55.27999878
C    17.20000076  35.97999954  54.43999863
C    18.54999924  36.29000092  54.69999695
C    19.61000061  35.94000244  53.80000305
C    20.88000107  36.24000168  54.22000122
C    21.21000099  36.95000076  55.40000153
C    20.19000053  37.33000183  56.24000168
C    18.85000038  36.97000122  55.93000031
C    14.70999908  36.34999847  55.10000229
C    13.96000004  36.84000015  56.19999695
C    12.57999992  37.04999924  56.14999771
C    22.65999985  37.31999969  55.65999985
H    23.08569908  36.61759567  56.37659454
H    18.02999878  37.90999985  57.70999908
H    16.95000076  35.49000168  53.50000000
H    19.40999985  35.63999939  52.77999878
H    21.68999863  36.09000015  53.52000427
H    20.42000008  38.02000046  57.04999924
H    12.17000008  37.81999969  56.79999924
H    23.22999954  37.27000046  54.72999954
H    22.50999832  38.32999802  56.05999756
S    11.51000023  35.50000000  52.65999603
C     8.78999996  35.73999786  53.18000031
C    10.07999992  36.09000015  53.52000427
C    10.44000053  36.65999985  54.78000259
C     9.39000034  37.02999878  55.61000061
C     8.05999947  36.68999863  55.28999710
C     7.00999975  36.88000107  56.24000168
C     5.69000006  36.61000061  55.94999695
C     5.44000053  35.86999893  54.75999832
C     6.39999962  35.54999924  53.82999802
C     7.72000027  36.02000046  54.06000137
C    11.87000084  36.63000107  55.01999664
C    12.58999920  35.96999741  53.99000168
C    13.97999954  35.88999939  54.00000000
C     4.00999975  35.45999908  54.48999786
H     3.47583437  35.98704147  53.69943237
H     8.67000008  35.19000244  52.23999786
H     9.50000000  37.34000015  56.65000153
H     7.35000038  37.04999924  57.25999832
H     4.90999985  36.84000015  56.65999985
H     6.03999996  35.12000275  52.90000153
H    14.46000004  35.31999969  53.20999908
H     3.47000003  35.42000198  55.45000076
H     3.95000005  34.40999985  54.15999985
S    15.36000061  37.72000122  51.77000046
C    18.09000015  37.52999878  51.02000427
C    16.75000000  37.29999924  50.76000214
C    16.43000031  36.79999924  49.45999908
C    17.32999992  36.54000092  48.43999863
C    18.68000031  36.84999847  48.72000122
C    19.71999931  36.60000229  47.77999878
C    21.07000160  36.76000214  47.97999954
C    21.42000008  37.36999893  49.22000122
C    20.45999908  37.63000107  50.17000198
C    19.06999969  37.36000061  50.00999832
C    14.98000050  36.84999847  49.31000137
C    14.26000023  37.36000061  50.41999817
C    12.89000034  37.57999802  50.41999817
C    22.79999924  37.86999893  49.55999756
H    23.39037323  37.19426727  50.17882538
H    18.31999969  38.02999878  51.95000076
H    17.05000114  36.17000198  47.44999695
H    19.40999985  36.34000015  46.77000046
H    21.76000214  36.61000061  47.15000153
H    20.72000122  38.08000183  51.11999893
H    12.36999989  38.00000000  51.27999878
H    23.26999855  38.09999847  48.60000229
H    22.65000153  38.86000061  50.01999664
S    11.76000023  36.34000015  46.83000183
C     9.04999924  36.30000305  47.56999969
C    10.36000061  36.53000259  47.90000153
C    10.71000004  37.04000092  49.20000076
C     9.67000008  37.36999893  50.06000137
C     8.30000019  37.25000000  49.73999786
C     7.22000027  37.36000061  50.65000153
C     5.91000032  37.06999969  50.34000015
C     5.60999966  36.53000259  49.06000137
C     6.63000011  36.50000000  48.13000107
C     8.00000000  36.68000031  48.44999695
C    12.15000057  37.14999771  49.31000137
C    12.86999893  36.74000168  48.15000153
C    14.23999977  36.54999924  48.15999985
C     4.19000006  36.02999878  48.90999603
H     3.71367502  36.54898071  48.07820892
H     8.76000023  35.82999802  46.63999939
H     9.86999989  37.68000031  51.07999802
H     7.34000015  37.50999832  51.72000122
H     5.19999981  36.98999786  51.16000366
H     6.38000011  36.24000168  47.11000061
H    14.84000015  36.12999725  47.36000061
H     3.63999987  36.17000198  49.85000229
H     4.13999987  34.93999863  48.82999802
