96

S    14.88999939  37.49000168  57.63999939
C    17.64999962  37.45999908  56.88999939
C    16.32999992  37.20000076  56.63999939
C    15.95999908  36.63000107  55.38000107
C    16.90000153  36.31000137  54.41999817
C    18.25000000  36.70999908  54.56999969
C    19.23999977  36.61000061  53.54999924
C    20.53999901  37.00000000  53.75999832
C    20.86999893  37.63000107  54.99000168
C    19.93999863  37.68000031  56.00999832
C    18.60999870  37.20999908  55.86999893
C    14.51000023  36.63999939  55.17000198
C    13.78999901  37.06999969  56.31999969
C    12.39999962  37.06999969  56.35000229
C    22.27000046  38.11000061  55.27000046
H    22.79688835  37.52615356  56.02472687
H    18.02000046  37.84000015  57.84000015
H    16.69000053  35.77000046  53.50000000
H    18.96000099  36.11999893  52.63000107
H    21.22999954  36.90000153  52.93000031
H    20.20000076  38.13999939  56.95999908
H    11.90999985  37.30999756  57.29000092
H    22.86000061  38.16999817  54.34000015
H    22.07999992  39.11000061  55.68000031
S    11.44000053  35.72000122  52.70000076
C     8.71000004  35.72000122  53.29000092
C     9.98999977  36.05999756  53.64999771
C    10.29000092  36.59000015  54.94999695
C     9.25000000  36.86000061  55.80999756
C     7.90999985  36.54000092  55.47000122
C     6.78999996  36.70999908  56.32999802
C     5.47999954  36.47999954  55.98999786
C     5.22000027  35.93000031  54.71000290
C     6.28999996  35.65999985  53.88999939
C     7.63000011  36.04999924  54.15000153
C    11.72999954  36.70999908  55.18000031
C    12.46000099  36.24000168  54.06000137
C    13.83999920  36.13999939  54.05000305
C     3.77999997  35.58000183  54.38999939
H     3.45343637  36.09824371  53.48839951
H     8.56000042  35.11000061  52.38999939
H     9.44000053  37.20999908  56.81999969
H     7.03999996  37.18000031  57.28000259
H     4.65999985  36.77000046  56.65000153
H     6.11999989  35.07999802  52.97999954
H    14.45000076  35.77000046  53.22999954
H     3.07000017  35.88999939  55.15999603
H     3.84000015  34.48999786  54.34000015
S    15.55999947  37.72000122  51.63999939
C    18.22999954  38.16999817  50.81999969
C    16.95000076  37.76000214  50.52999878
C    16.55999947  37.47000122  49.19000244
C    17.53000069  37.37999725  48.20000076
C    18.88000107  37.66999817  48.47000122
C    19.89999962  37.59000015  47.48000336
C    21.21999931  37.86999893  47.76000214
C    21.54999924  38.22000122  49.09000015
C    20.59000015  38.36999893  50.06999969
C    19.22999954  38.06000137  49.80999756
C    15.11999989  37.20999908  49.12000275
C    14.40999985  37.43000031  50.33000183
C    13.02000046  37.50000000  50.38999939
C    22.93999863  38.75000000  49.36000061
H    23.44131279  38.04100037  50.01886749
H    18.50000000  38.34000015  51.84999847
H    17.28000069  37.30999756  47.15000153
H    19.64999962  37.22999954  46.47999573
H    21.97999954  37.83000183  46.97999954
H    20.84000015  38.67000198  51.09000397
H    12.60000038  37.62000275  51.38999939
H    23.45999908  38.81000137  48.40000153
H    22.80999947  39.69000244  49.91000366
S    11.84000015  36.48999786  46.72999954
C     9.13000011  36.40999985  47.39999771
C    10.42000008  36.74000168  47.76000214
C    10.80000019  37.15999985  49.06999969
C     9.77999973  37.36000061  49.99000168
C     8.50000000  36.84000015  49.68999863
C     7.42999983  36.97000122  50.61999893
C     6.15999985  36.54000092  50.33000183
C     5.86999989  35.97999954  49.05000305
C     6.84000015  35.81999969  48.09000015
C     8.13000011  36.31999969  48.40000153
C    12.23999977  37.22999954  49.26000214
C    12.94000053  36.84999847  48.08000183
C    14.32000065  37.00999832  48.00000000
C     4.48000002  35.49000168  48.69999695
H     4.03975487  36.07226181  47.89051819
H     8.98999977  36.08000183  46.38000107
H    10.08999920  37.59000015  51.00999832
H     7.63999987  37.44999695  51.58000183
H     5.35000038  36.86999893  50.97000122
H     6.65000010  35.34000015  47.12999725
H    14.80999947  37.06000137  47.02999878
H     3.82999992  35.47000122  49.58000183
H     4.53000021  34.45000076  48.36999893
