96

S    14.96000099  37.15999985  57.56999969
C    17.67000008  37.09000015  56.86000061
C    16.36000061  36.77999878  56.55000305
C    16.01000023  36.25999832  55.27000046
C    16.97000122  36.12999725  54.27999878
C    18.31999969  36.50000000  54.54999924
C    19.30999947  36.45000076  53.53000259
C    20.62999916  36.61999893  53.88999939
C    21.02999878  36.93999863  55.20999908
C    20.05000114  37.15999985  56.14999771
C    18.67000008  36.91999817  55.87999725
C    14.55999947  36.22000122  55.12000275
C    13.86999989  36.65999985  56.26999664
C    12.51000023  36.97999954  56.24000168
C    22.39999962  37.57999802  55.34000015
H    22.91080856  37.30331421  56.26229095
H    17.92000008  37.44999695  57.84999847
H    16.77999878  36.01000214  53.22000122
H    19.11999893  36.29000092  52.47000122
H    21.35000038  36.67000198  53.08000183
H    20.35000038  37.61000061  57.09999847
H    12.02000046  37.50000000  57.05999756
H    23.11000061  37.50999832  54.52000046
H    22.06999969  38.62999725  55.34000015
S    11.39999962  35.86000061  52.56000137
C     8.71000004  35.84999847  53.20999908
C     9.98999977  36.17000198  53.59000397
C    10.32999992  36.61999893  54.91000366
C     9.30999947  36.86000061  55.80999756
C     7.97999954  36.51000214  55.47000122
C     6.93000031  36.68999863  56.40999603
C     5.64000034  36.43000031  56.02000427
C     5.33999968  35.88000107  54.73999786
C     6.32999992  35.70000076  53.80000305
C     7.65999985  36.05999756  54.13999939
C    11.77000046  36.60000229  55.11000061
C    12.46000099  36.18000031  53.95000076
C    13.83999920  35.96999741  53.95000076
C     3.98000002  35.25000000  54.54000092
H     3.36747742  35.87676620  53.89186478
H     8.56999969  35.35000229  52.25000000
H     9.57999992  37.04999924  56.84000015
H     7.14999962  36.88000107  57.45999908
H     4.82999992  36.25999832  56.72999954
H     6.03999996  35.09999847  52.94000244
H    14.21000004  35.70999908  52.95999908
H     3.53999996  35.16999817  55.54999924
H     4.19000006  34.24000168  54.15999985
S    15.43000031  37.72999954  51.30000305
C    18.13999939  37.77000046  50.61000061
C    16.84999847  37.40000153  50.28999710
C    16.48999977  36.90999985  48.99000168
C    17.50000000  36.55999756  48.11999893
C    18.84000015  36.86000061  48.46000290
C    19.92000008  36.65000153  47.55000305
C    21.22999954  36.84999847  47.91999817
C    21.51000023  37.59999847  49.09999847
C    20.52999878  37.88000107  50.02999878
C    19.19000053  37.52000046  49.68999863
C    15.03999901  36.86999893  48.85000229
C    14.32000065  37.36999893  49.97000122
C    12.94000053  37.52999878  50.04000092
C    22.88000107  38.13999939  49.40999985
H    23.42845726  37.48469925  50.08666611
H    18.37000084  38.20000076  51.58000183
H    17.25000000  36.22999954  47.11000061
H    19.78000069  36.30000305  46.53999710
H    21.97999954  36.59000015  47.18999863
H    20.76999855  38.44000244  50.91999817
H    12.32999992  37.99000168  50.81999969
H    23.38999939  38.16999817  48.43999863
H    22.86999893  39.13999939  49.85000229
S    11.75000000  36.20999908  46.45999908
C     9.11000061  36.52000046  47.05999756
C    10.39999962  36.86000061  47.41000366
C    10.77000046  37.23999786  48.74000168
C     9.77000046  37.38999939  49.68999863
C     8.42000008  37.07999802  49.36999893
C     7.40000010  37.09000015  50.35999680
C     6.10000038  36.81999969  50.00999832
C     5.79999971  36.36000061  48.69999695
C     6.77999973  36.17000198  47.76000214
C     8.10000038  36.63000107  48.04000092
C    12.20999908  37.22999954  48.88999939
C    12.86999893  36.63000107  47.77999878
C    14.25000000  36.47000122  47.77000046
C     4.39000034  35.84999847  48.50000000
H     3.84266472  36.35468292  47.70387268
H     8.78999996  35.96999741  46.18000031
H    10.08999920  37.63000107  50.70000076
H     7.59000015  37.19000244  51.43000031
H     5.38999987  36.79999924  50.84000015
H     6.51000023  35.68999863  46.81999969
H    14.68000031  35.95999908  46.91999817
H     3.79999995  35.72000122  49.41999817
H     4.61999989  34.81999969  48.20999908
