96

S    14.85000038  36.90999985  57.45999908
C    17.56999969  36.97000122  56.81999969
C    16.28000069  36.63000107  56.45999908
C    15.93000031  36.04000092  55.20000076
C    16.95999908  35.86000061  54.29999924
C    18.27000046  36.27000046  54.61999893
C    19.26000023  36.18999863  53.59000397
C    20.55000114  36.59000015  53.82999802
C    20.88999939  37.11000061  55.11000061
C    19.97999954  37.19000244  56.13999939
C    18.63999939  36.77999878  55.90999985
C    14.47999954  35.95999908  55.05000305
C    13.73000050  36.43000031  56.16000366
C    12.36999989  36.68000031  56.20999908
C    22.29000092  37.61000061  55.43000031
H    22.74648476  36.94667053  56.16465378
H    17.75000000  37.36999893  57.81999969
H    16.68000031  35.45999908  53.31999969
H    18.86999893  35.86000061  52.63000107
H    21.28999901  36.60000229  53.04000092
H    20.10999870  37.62000275  57.12999725
H    11.82999992  36.93999863  57.11999893
H    22.81999969  37.76000214  54.47999954
H    22.20000076  38.62999725  55.81999969
S    11.26999950  35.45000076  52.56999969
C     8.55000019  35.63000107  53.20000076
C     9.85999966  35.91999817  53.54000092
C    10.19999981  36.43000031  54.82999802
C     9.22000027  36.61000061  55.79000092
C     7.86999989  36.30000305  55.48999786
C     6.83000040  36.38000107  56.45000076
C     5.51000023  36.06999969  56.20999908
C     5.18000031  35.61999893  54.89999771
C     6.17000008  35.47999954  53.95999908
C     7.53000021  35.81999969  54.16999817
C    11.64000034  36.47999954  55.02999878
C    12.32999992  35.95999908  53.89999771
C    13.67000008  35.59999847  53.97999573
C     3.78999996  35.09000015  54.68000031
H     3.32152247  35.54428101  53.80692673
H     8.40999985  35.00999832  52.31999969
H     9.48999977  36.86999893  56.81000137
H     7.23999977  36.65000153  57.41000366
H     4.84000015  36.06999969  57.06999969
H     5.98000002  35.09000015  52.95999908
H    14.19999981  35.18000031  53.11999893
H     3.23000002  35.40000153  55.56999969
H     3.68000007  34.00000000  54.72000122
S    11.36999989  33.54000092  49.64000320
C     8.71000004  33.09000015  50.33000183
C    10.03999901  32.81999969  50.56999969
C    10.46000004  32.15999985  51.77000046
C     9.53999996  31.68000031  52.68000031
C     8.14999962  31.90999985  52.47000122
C     7.16000032  31.42000008  53.36999893
C     5.84000015  31.48999977  52.98999786
C     5.38999987  32.30999756  51.90999985
C     6.37000036  32.83000183  51.11000061
C     7.76999998  32.62000275  51.27999878
C    11.90000057  32.27000046  51.91999817
C    12.51999950  33.04000092  50.90000153
C    13.86999989  33.36999893  50.90999985
C     3.91999984  32.52999878  51.63000107
H     3.59222460  32.03121185  50.71792984
H     8.34999943  33.52000046  49.40000153
H     9.82999992  31.34000015  53.67000198
H     7.40999985  30.89999962  54.29000092
H     5.12000036  30.84000015  53.46000290
H     6.12999964  33.52000046  50.30000305
H    14.27000046  33.97999954  50.10000229
H     3.30999994  32.07999802  52.42000198
H     3.61999989  33.58000183  51.52000046
S    15.29000092  31.73999977  54.22000122
C    17.97999954  32.25000000  53.50999832
C    16.63999939  32.43999863  53.29000092
C    16.13999939  33.06000137  52.09999847
C    17.05000114  33.54000092  51.18000031
C    18.44000053  33.36999893  51.38000107
C    19.42000008  34.03000259  50.56999969
C    20.73999786  33.93000031  50.93000031
C    21.18999863  33.25000000  52.09000015
C    20.29000092  32.69000244  52.97000122
C    18.93000031  32.72999954  52.56999969
C    14.68999958  32.97999954  51.97000122
C    14.09999943  32.18000031  52.97999954
C    12.74000072  31.90000153  52.97999954
C    22.67000008  33.13000107  52.35000229
H    23.01821709  33.31476974  53.36622238
H    18.36000061  31.70999908  54.38000107
H    16.69999886  34.10000229  50.31999969
H    19.15999985  34.63999939  49.71000290
H    21.40000153  34.47999954  50.27000046
H    20.53999901  32.18000031  53.89999771
H    12.39999962  31.15999985  53.69999695
H    23.15999985  33.77999878  51.62000275
H    22.95000076  32.06999969  52.22999954
