96

S    15.06999969  37.61000061  56.98999786
C    17.78000069  37.34999847  56.49000168
C    16.50000000  37.06000137  56.09000397
C    16.20000076  36.52000046  54.79999924
C    17.27000046  36.29000092  53.95000076
C    18.60999870  36.52000046  54.34000015
C    19.69000053  36.45000076  53.40999985
C    20.97999954  36.72000122  53.77999878
C    21.27000046  37.34000015  55.01999664
C    20.22000122  37.47000122  55.90999985
C    18.89000130  37.06000137  55.63999939
C    14.77000046  36.47000122  54.56999969
C    14.04999924  36.98999786  55.68000031
C    12.67000008  37.15999985  55.65000153
C    22.70000076  37.65000153  55.41999817
H    23.02185631  37.02059555  56.24967194
H    17.93000031  37.86000061  57.43999863
H    17.01000023  36.18000031  52.90000153
H    19.45999908  36.04000092  52.43000031
H    21.80999947  36.54999924  53.09000015
H    20.42000008  37.95000076  56.86000061
H    12.25000000  37.59000015  56.55000305
H    23.42000008  37.36999893  54.64000320
H    22.86999893  38.72000122  55.58000183
S    11.43000031  35.68999863  52.27000427
C     8.65999985  35.77000046  53.02000046
C    10.00000000  35.97999954  53.27999878
C    10.38000011  36.48999786  54.56999969
C     9.42000008  36.81000137  55.52000046
C     8.05000019  36.61000061  55.26000214
C     7.09000015  36.68999863  56.31000137
C     5.77000046  36.44000244  56.02000427
C     5.36000013  35.95999908  54.73999786
C     6.30000019  35.72999954  53.75999832
C     7.65999985  36.06999969  53.97999573
C    11.82000065  36.61000061  54.66999817
C    12.56000042  36.12999725  53.55999756
C    13.94999981  36.02000046  53.53000259
C     3.91999984  35.56999969  54.52000046
H     3.39406729  36.03907394  53.68845749
H     8.38000011  35.22000122  52.11999893
H     9.61000061  37.11000061  56.55000305
H     7.53000021  36.93999863  57.27000427
H     5.01999950  36.48999786  56.79999924
H     5.97000027  35.31999969  52.81000137
H    14.44000053  35.72000122  52.61000061
H     3.47000003  35.75000000  55.51000214
H     3.91999984  34.47000122  54.52999878
S    15.42000008  37.79999924  51.37000275
C    18.06999969  37.75000000  50.73999786
C    16.79999924  37.37999725  50.34000015
C    16.43000031  36.97000122  49.02000046
C    17.43000031  36.88000107  48.06999969
C    18.75000000  37.20999908  48.48999786
C    19.79999924  37.06000137  47.54000092
C    21.11999893  37.26000214  47.85999680
C    21.45000076  37.88999939  49.09000015
C    20.46999931  38.06000137  50.04000092
C    19.11999893  37.65999985  49.79999924
C    14.98000050  36.97000122  48.90999603
C    14.27999973  37.38999939  50.06999969
C    12.89999962  37.52000046  50.02999878
C    22.90999985  38.20000076  49.31000137
H    23.40746117  37.51066208  49.99223328
H    18.35000038  38.23999786  51.68000031
H    17.14999962  36.72999954  47.04000092
H    19.54000092  36.75000000  46.52999878
H    21.97000122  37.15999985  47.18999863
H    20.72999954  38.54000092  50.97999954
H    12.38000011  37.95000076  50.87999725
H    23.43000031  38.25999832  48.34999847
H    22.93000031  39.18000031  49.80999756
S    11.72999954  36.05999756  46.56999969
C     9.04999924  36.22000122  47.22000122
C    10.34000015  36.58000183  47.54000092
C    10.71000004  37.11000061  48.81999969
C     9.72000027  37.27999878  49.77000427
C     8.42000008  36.84000015  49.43999863
C     7.36000013  37.16999817  50.33000183
C     6.03999996  36.97999954  50.00999832
C     5.65999985  36.40999985  48.76999664
C     6.63000011  36.06999969  47.85999680
C     7.99000025  36.38999939  48.13999939
C    12.17000008  37.18000031  48.88999939
C    12.86999893  36.72000122  47.75000000
C    14.26000023  36.65000153  47.75000000
C     4.19999981  36.04000092  48.56999969
H     3.84999466  36.36857605  47.59141159
H     8.76000023  35.86999893  46.23000336
H     9.94000053  37.72000122  50.73999786
H     7.64999962  37.66999817  51.25000000
H     5.29999971  37.06999969  50.79999924
H     6.34999990  35.58000183  46.93000031
H    14.78999996  36.37000275  46.84000015
H     3.61999989  36.51000214  49.36999893
H     4.18000031  34.94999695  48.66000366
