96

S    15.18000031  37.40999985  57.23999786
C    17.90999985  37.45999908  56.53999710
C    16.61000061  37.15999985  56.20999908
C    16.18999863  36.52000046  55.00000000
C    17.19000053  36.12999725  54.13000107
C    18.53999901  36.48999786  54.36000061
C    19.62000084  36.22000122  53.46000290
C    20.92000008  36.52000046  53.80000305
C    21.25999832  37.13000107  55.02999878
C    20.27000046  37.34000015  55.97000122
C    18.90999985  37.09999847  55.61000061
C    14.73999977  36.50000000  54.85000229
C    14.01999950  36.93999863  55.98999786
C    12.64000034  37.09999847  56.09000397
C    22.65000153  37.65999985  55.30000305
H    23.19292641  37.14564896  56.09295654
H    18.15999985  37.84000015  57.51999664
H    16.92000008  35.54999924  53.25000000
H    19.40999985  35.84999847  52.45999908
H    21.73999977  36.45999908  53.09000015
H    20.36000061  37.95999908  56.86000061
H    12.17000008  37.50000000  56.98999786
H    23.23999786  37.47000122  54.40000153
H    22.52000046  38.70999908  55.61999893
S    11.39999962  35.72000122  52.64999771
C     8.71999931  35.98999786  53.20000076
C    10.01000023  36.22000122  53.61999893
C    10.39000034  36.74000168  54.89999771
C     9.38000011  36.97999954  55.80999756
C     8.03999996  36.72999954  55.45000076
C     6.98000002  36.72000122  56.40999603
C     5.71000004  36.30000305  56.09000397
C     5.38000011  35.84999847  54.79000092
C     6.38000011  35.75000000  53.85000229
C     7.69999981  36.18000031  54.16999817
C    11.84000015  36.74000168  55.00000000
C    12.56000042  36.18999863  53.90999603
C    13.94000053  36.09000015  53.77999878
C     3.98000002  35.33000183  54.51000214
H     3.42549729  35.77786636  53.68535614
H     8.56999969  35.45999908  52.25999832
H     9.61000061  37.29000092  56.83000183
H     7.11000013  37.02000046  57.44999695
H     4.86999989  36.27999878  56.77999878
H     6.15999985  35.33000183  52.87000275
H    14.39000034  35.58000183  52.93000031
H     3.49000001  35.52999878  55.47000122
H     4.02999973  34.24000168  54.51000214
S    15.39999962  37.70000076  51.50000000
C    18.12999916  37.75000000  50.70000076
C    16.81999969  37.37999725  50.48999786
C    16.43000031  36.86999893  49.20000076
C    17.45000076  36.63000107  48.29000092
C    18.79999924  37.02000046  48.43999863
C    19.81999969  36.75000000  47.48000336
C    21.14000130  37.00999832  47.76000214
C    21.40999985  37.80999756  48.89999771
C    20.45000076  38.16999817  49.80999756
C    19.11999893  37.66999817  49.68000031
C    14.98999977  36.83000183  49.03999710
C    14.29999924  37.40999985  50.13999939
C    12.90999985  37.47999954  50.20000076
C    22.86000061  38.18999863  49.13999939
H    23.27341461  37.55562210  49.92406082
H    18.45000076  38.04999924  51.69000244
H    17.10000038  36.20999908  47.35000229
H    19.60000038  36.25999832  46.52999878
H    21.80000114  36.72000122  46.95000076
H    20.71000099  38.77000046  50.68000031
H    12.48000050  37.59000015  51.18999863
H    23.43000031  38.09999847  48.20999908
H    22.79000092  39.22000122  49.52000046
S    11.79999924  36.15000153  46.68000031
C     9.06000042  36.22000122  47.29000092
C    10.34999943  36.54000092  47.62000275
C    10.70000076  36.97999954  48.94000244
C     9.75000000  37.20000076  49.92000198
C     8.38999939  37.06000137  49.54999924
C     7.35000038  37.30999756  50.47999954
C     6.05000019  36.95999908  50.24000168
C     5.73000002  36.44000244  48.95000076
C     6.67999983  36.29000092  47.97000122
C     8.05999947  36.48999786  48.27000046
C    12.13999939  37.13999939  49.08000183
C    12.89000034  36.55999756  48.02999878
C    14.26000023  36.34999847  47.94000244
C     4.39000034  35.82999802  48.61999893
H     3.85760427  36.34109879  47.81785965
H     8.76999950  35.79999924  46.32999802
H    10.05000019  37.65999985  50.86000061
H     7.75000000  37.70000076  51.42000198
H     5.33999968  36.95999908  51.05999756
H     6.42000008  35.86000061  47.01000214
H    14.70999908  36.00000000  47.01000214
H     3.76999998  35.75999832  49.52000046
H     4.53999996  34.77999878  48.36000061
