96

S    15.06999969  37.45999908  57.43000031
C    17.79000092  37.37999725  56.79000092
C    16.50000000  37.04000092  56.45999908
C    16.14999962  36.31999969  55.27999878
C    17.20000076  35.97999954  54.43999863
C    18.54999924  36.29000092  54.69999695
C    19.61000061  35.94000244  53.80000305
C    20.88000107  36.24000168  54.22000122
C    21.21000099  36.95000076  55.40000153
C    20.19000053  37.33000183  56.24000168
C    18.85000038  36.97000122  55.93000031
C    14.70999908  36.34999847  55.10000229
C    13.96000004  36.84000015  56.19999695
C    12.57999992  37.04999924  56.14999771
C    22.65999985  37.31999969  55.65999985
H    23.08569908  36.61759567  56.37659454
H    18.02999878  37.90999985  57.70999908
H    16.95000076  35.49000168  53.50000000
H    19.40999985  35.63999939  52.77999878
H    21.68999863  36.09000015  53.52000427
H    20.42000008  38.02000046  57.04999924
H    12.17000008  37.81999969  56.79999924
H    23.22999954  37.27000046  54.72999954
H    22.50999832  38.32999802  56.05999756
S    11.51000023  35.50000000  52.65999603
C     8.78999996  35.73999786  53.18000031
C    10.07999992  36.09000015  53.52000427
C    10.44000053  36.65999985  54.78000259
C     9.39000034  37.02999878  55.61000061
C     8.05999947  36.68999863  55.28999710
C     7.00999975  36.88000107  56.24000168
C     5.69000006  36.61000061  55.94999695
C     5.44000053  35.86999893  54.75999832
C     6.39999962  35.54999924  53.82999802
C     7.72000027  36.02000046  54.06000137
C    11.87000084  36.63000107  55.01999664
C    12.58999920  35.96999741  53.99000168
C    13.97999954  35.88999939  54.00000000
C     4.00999975  35.45999908  54.48999786
H     3.47583437  35.98704147  53.69943237
H     8.67000008  35.19000244  52.23999786
H     9.50000000  37.34000015  56.65000153
H     7.35000038  37.04999924  57.25999832
H     4.90999985  36.84000015  56.65999985
H     6.03999996  35.12000275  52.90000153
H    14.46000004  35.31999969  53.20999908
H     3.47000003  35.42000198  55.45000076
H     3.95000005  34.40999985  54.15999985
S    11.72000027  33.52000046  49.75999832
C     9.04999924  33.04999924  50.37000275
C    10.36999893  32.93000031  50.76000214
C    10.81999969  32.27999878  51.95000076
C     9.86999989  31.83000183  52.84000015
C     8.50000000  31.84000015  52.47000122
C     7.44999981  31.42000008  53.33000183
C     6.10000038  31.42999840  53.06000137
C     5.73999977  32.20999908  51.93000031
C     6.71000004  32.68000031  51.06999969
C     8.10000038  32.43999863  51.22000122
C    12.28000069  32.30999756  52.02999878
C    12.92000008  32.95999908  50.93999863
C    14.25000000  33.36000061  50.91999817
C     4.28000021  32.52999878  51.72999954
H     3.91855288  32.11894226  50.78740311
H     8.80000019  33.54999924  49.43999863
H    10.07999992  31.67000008  53.89999771
H     7.85000038  31.19999886  54.31000137
H     5.36999989  31.05999947  53.76999664
H     6.44999981  33.25999832  50.19000244
H    14.59000015  34.01000214  50.12000275
H     3.65999985  32.23999786  52.58999634
H     4.17000008  33.61999893  51.72999954
S    15.52000046  31.80999947  54.38000107
C    18.22000122  32.20000076  53.83999634
C    16.92000008  32.44999695  53.48999786
C    16.45000076  33.09999847  52.30999756
C    17.46999931  33.51000214  51.47999573
C    18.85000038  33.38999939  51.76000214
C    19.93000031  33.91999817  50.98999786
C    21.24000168  33.79000092  51.39999771
C    21.56999969  33.06000137  52.56999969
C    20.55999947  32.56000137  53.36999893
C    19.20999908  32.83000183  53.04000092
C    15.01000023  33.04999924  52.05999756
C    14.39000034  32.36999893  53.13000107
C    13.07000065  31.94999886  53.13000107
C    23.03999901  32.75000000  52.70000076
H    23.51075935  33.22076035  53.56305695
H    18.34000015  31.67000008  54.78000259
H    17.28000069  34.04000092  50.54999924
H    19.78000069  34.50000000  50.08999634
H    22.06000137  34.18999863  50.81999969
H    20.82999992  31.98999786  54.26000214
H    12.61000061  31.52000046  54.02000046
H    23.47999954  33.02000046  51.72999954
H    23.22999954  31.68000031  52.81000137
