96

S    15.47999954  37.42000198  57.43000031
C    18.18000031  37.72000122  56.62000275
C    16.87999916  37.34999847  56.35000229
C    16.47999954  36.83000183  55.07999802
C    17.48999977  36.65999985  54.13999939
C    18.86000061  36.90999985  54.40000153
C    19.88000107  36.76000214  53.43000031
C    21.17000198  37.04999924  53.82999802
C    21.42000008  37.70000076  55.06000137
C    20.52000046  37.86000061  56.07999802
C    19.20999908  37.50999832  55.65999985
C    15.05000019  36.61999893  54.94999695
C    14.35999966  37.02000046  56.11999893
C    12.97999954  36.86000061  56.25999832
C    22.86999893  38.08000183  55.31999969
H    23.36331940  37.42938995  56.04210663
H    18.30999947  38.08000183  57.63999939
H    17.25000000  36.27000046  53.15999985
H    19.68000031  36.22999954  52.50000000
H    22.03000069  36.83000183  53.20000076
H    20.81000137  38.23999786  57.05999756
H    12.46000099  36.84999847  57.21000290
H    23.36000061  38.08000183  54.34000015
H    22.86000061  39.11000061  55.68999863
S    11.75000000  35.77999878  52.65999603
C     9.11000061  35.63999939  53.46000290
C    10.36999893  36.12999725  53.72000122
C    10.77999973  36.55999756  55.01999664
C     9.75000000  36.63999939  55.93999863
C     8.39999962  36.30000305  55.70000076
C     7.40999985  36.22999954  56.72000122
C     6.17999983  35.79000092  56.29000092
C     5.84999990  35.19000244  55.05000305
C     6.83000040  35.11000061  54.09000015
C     8.05999947  35.75999832  54.40999985
C    12.23000050  36.63999939  55.10000229
C    12.90999985  36.20999908  53.93000031
C    14.29999924  36.22000122  53.83999634
C     4.46999979  34.68000031  54.72000122
H     3.98765349  35.26874924  53.93973160
H     8.86999989  35.02999878  52.60000229
H    10.03999901  36.79999924  56.97999954
H     7.50000000  36.52000046  57.76000214
H     5.36999989  35.81999969  57.02000046
H     6.78999996  34.61999893  53.11999893
H    14.70999908  35.84000015  52.90000153
H     3.81000018  34.70000076  55.59000015
H     4.50000000  33.61000061  54.52000046
S    15.72999954  37.72999954  51.38000107
C    18.38999939  38.02000046  50.68000031
C    17.13999939  37.56000137  50.33000183
C    16.75000000  37.11999893  49.02000046
C    17.79000092  37.02999878  48.11000061
C    19.10000038  37.47999954  48.37999725
C    20.15999985  37.34000015  47.43999863
C    21.44000053  37.63000107  47.84000015
C    21.78999901  38.01000214  49.15999985
C    20.76999855  38.20999908  50.05000305
C    19.40999985  37.93999863  49.71000290
C    15.31000042  36.93999863  48.88999939
C    14.60999966  37.40000153  50.04000092
C    13.22999954  37.37999725  50.18000031
C    23.22999954  38.29000092  49.52999878
H    23.64352989  37.56275940  50.22872162
H    18.57999992  38.34000015  51.70999908
H    17.52000046  36.55999756  47.16999817
H    20.06000137  36.74000168  46.52999878
H    22.27000046  37.47999954  47.15000153
H    20.94000053  38.52999878  51.07999802
H    12.67000008  37.56999969  51.09000397
H    23.85999870  38.29999924  48.62999725
H    23.19000053  39.27000046  50.02999878
S    12.10999966  36.05999756  46.59000015
C     9.42000008  35.97999954  47.41000366
C    10.72999954  36.30000305  47.68000031
C    11.03999996  37.02999878  48.87000275
C    10.05000019  37.18000031  49.82999802
C     8.75000000  36.63999939  49.65999985
C     7.82999992  36.60000229  50.73999786
C     6.57999992  36.08000183  50.52999878
C     6.14000034  35.58000183  49.27000046
C     7.05999947  35.61000061  48.25000000
C     8.42000008  36.01000214  48.40999985
C    12.48000050  37.11000061  49.02000046
C    13.17999935  36.72000122  47.84000015
C    14.55000019  36.51000214  47.80000305
C     4.67999983  35.33000183  48.95999908
H     4.24647856  35.96251678  48.18534851
H     9.26000023  35.61000061  46.38999939
H    10.40999985  37.36999893  50.83000183
H     8.03999996  36.98999786  51.72999954
H     5.78999996  36.12999725  51.27999878
H     6.78999996  35.22999954  47.27000427
H    15.11999989  36.00000000  47.02999878
H     4.15000010  35.28000259  49.92000198
H     4.59000015  34.29000092  48.61999893
