96

S    15.03999901  37.13000107  57.25000000
C    17.71000099  37.37999725  56.47999573
C    16.45000076  36.93000031  56.18999863
C    16.04999924  36.43000031  54.91000366
C    17.11000061  36.40000153  54.02000046
C    18.45999908  36.77000046  54.23999786
C    19.55000114  36.63999939  53.34000015
C    20.81000137  37.02000046  53.74000168
C    21.05999947  37.69000244  54.97000122
C    20.06999969  37.70999908  55.93000031
C    18.78000069  37.26000214  55.56000137
C    14.60999966  36.44000244  54.68999863
C    13.94999981  36.72999954  55.90999985
C    12.56999969  36.81999969  56.02000427
C    22.49000168  38.04999924  55.30000305
H    22.96304703  37.23292160  55.84471893
H    17.71999931  37.93000031  57.42000198
H    16.77000046  35.96999741  53.08000183
H    19.32999992  36.27999878  52.34000397
H    21.63999939  36.79000092  53.06999969
H    20.27000046  38.18999863  56.88999939
H    12.05000019  37.04000092  56.95000076
H    23.08000183  38.36000061  54.43000031
H    22.44999886  38.95999908  55.91999817
S    11.26999950  35.79000092  52.50000000
C     8.56999969  35.81000137  53.18999863
C     9.85999966  36.17000198  53.50000000
C    10.29999924  36.55999756  54.80999756
C     9.35000038  36.76000214  55.79000092
C     8.00000000  36.41999817  55.50000000
C     7.03000021  36.34999847  56.52999878
C     5.69000006  36.12999725  56.27999878
C     5.23999977  35.79999924  54.97000122
C     6.19999981  35.70999908  53.99000168
C     7.57999992  35.96999741  54.20000076
C    11.75000000  36.67000198  54.88999939
C    12.46000099  36.25000000  53.74000168
C    13.82999992  36.11999893  53.55999756
C     3.81000018  35.43000031  54.65999985
H     3.38928628  36.09315872  53.90414429
H     8.38000011  35.43999863  52.18999863
H     9.67000008  36.95999908  56.79999924
H     7.31999969  36.34000015  57.57999802
H     5.09999990  35.95999908  57.16999817
H     6.06999969  35.45999908  52.94000244
H    14.21000004  35.93000031  52.56000137
H     3.24000001  35.47999954  55.59000015
H     3.86999989  34.36000061  54.40999985
S    11.85999966  33.98999786  49.52999878
C     9.18000031  33.50000000  50.14999771
C    10.51000023  33.25999832  50.40999985
C    10.98000050  32.65999985  51.63000107
C    10.06999969  32.23999786  52.58999634
C     8.69000053  32.36000061  52.30999756
C     7.75000000  31.77000046  53.20000076
C     6.40999985  31.87999916  52.90000153
C     5.97000027  32.70000076  51.81999969
C     6.85999966  33.18999863  50.89000320
C     8.25000000  32.97999954  51.09000397
C    12.39999962  32.80999756  51.86999893
C    13.00000000  33.54000092  50.80999756
C    14.34999943  33.86000061  50.77000046
C     4.53000021  33.13999939  51.72000122
H     4.04526567  32.81209183  50.80043030
H     8.80000019  34.26000214  49.47000122
H    10.40999985  31.80000114  53.53000259
H     8.11999989  31.38000107  54.13999939
H     5.72000027  31.50000000  53.63999939
H     6.57999992  33.80000305  50.04000092
H    14.68999958  34.41999817  49.89999771
H     3.97000027  32.79999924  52.61000061
H     4.51999998  34.22999954  51.79000092
S    15.77000046  32.34999847  54.15000153
C    18.39999962  33.00000000  53.46000290
C    17.06999969  33.02000046  53.13999939
C    16.61000061  33.46999741  51.86000061
C    17.53000069  33.97000122  50.96000290
C    18.92000008  33.88000107  51.23000336
C    19.90999985  34.38000107  50.33000183
C    21.24000168  34.20999908  50.61999893
C    21.63000107  33.80000305  51.91999817
C    20.72999954  33.52999878  52.91999817
C    19.37000084  33.44000244  52.51999664
C    15.15999985  33.38000107  51.81000137
C    14.53999996  32.79999924  52.95000076
C    13.17999935  32.47999954  52.98999786
C    23.02000046  34.29000092  52.25999832
H    23.46828651  33.67805481  53.04272461
H    18.84000015  32.56999969  54.36000061
H    17.22999954  34.29999924  49.97000122
H    19.48999977  34.95999908  49.52000046
H    21.93000031  34.66999817  49.91000366
H    21.07999992  33.52000046  53.95000076
H    12.74000072  32.04000092  53.87000275
H    22.98999977  35.36999893  52.44999695
H    23.57999992  34.22000122  51.31999969
