96

S    14.86999989  37.47999954  57.47000122
C    17.56999969  37.47000122  56.72000122
C    16.27000046  37.14999771  56.43000031
C    15.98000050  36.54999924  55.15999603
C    16.95999908  36.30000305  54.22000122
C    18.29000092  36.68000031  54.51000214
C    19.29999924  36.67000198  53.50999832
C    20.62000084  36.90999985  53.81999969
C    20.95999908  37.56000137  55.04000092
C    19.93000031  37.83000183  55.90999985
C    18.60999870  37.31999969  55.76000214
C    14.52999973  36.40000153  55.06000137
C    13.81000042  36.90000153  56.17000198
C    12.43000031  37.04000092  56.13999939
C    22.39999962  37.84000015  55.38999939
H    22.89949226  37.16211700  56.08215714
H    17.75000000  37.90999985  57.70000076
H    16.60000038  35.95999908  53.25000000
H    18.97999954  36.15999985  52.61000061
H    21.42000008  36.68999863  53.11999893
H    20.20000076  38.27000046  56.86999893
H    11.92000008  37.54000092  56.95999908
H    22.92000008  37.86999893  54.41999817
H    22.43999863  38.84999847  55.81999969
S    11.44999981  35.66999817  52.50000000
C     8.78999996  35.49000168  53.15000153
C    10.03000069  35.95000076  53.52000427
C    10.27999973  36.60000229  54.77000427
C     9.26000023  36.81999969  55.68999863
C     7.96000004  36.43000031  55.27999878
C     6.90000010  36.58000183  56.20999908
C     5.61999989  36.18000031  55.90000153
C     5.35000038  35.52000046  54.68000031
C     6.35999966  35.43999863  53.74000168
C     7.69999981  35.82999802  54.00000000
C    11.71000004  36.63000107  55.00999832
C    12.43999958  36.15999985  53.88999939
C    13.81999969  35.95999908  53.94000244
C     3.94000006  35.00000000  54.48999786
H     3.46915841  35.59211731  53.70526505
H     8.64999962  34.86999893  52.27000427
H     9.55000019  37.06000137  56.70999908
H     7.13000011  36.88999939  57.22999954
H     4.86999989  36.30000305  56.68000031
H     6.25999975  34.92000198  52.78999710
H    14.34999943  35.56999969  53.06999969
H     3.28999996  35.02000046  55.37000275
H     3.97000027  33.93000031  54.23999786
S    11.64000034  33.77000046  49.47000122
C     9.02000046  33.29000092  50.19000244
C    10.34999943  33.09999847  50.48999786
C    10.82999992  32.37999725  51.63000107
C     9.90999985  31.86000061  52.50999832
C     8.52999973  32.07999802  52.31999969
C     7.59999990  31.53000069  53.23999786
C     6.25000000  31.64999962  52.97000122
C     5.79999971  32.42000198  51.86999893
C     6.70000029  32.84000015  50.93000031
C     8.10999966  32.65999985  51.06999969
C    12.28999996  32.38999939  51.72999954
C    12.79000092  33.22000122  50.70000076
C    14.11999893  33.62999725  50.76000214
C     4.30000019  32.47999954  51.63000107
H     3.99285221  31.72284508  50.90855789
H     8.73000050  33.98999786  49.40000153
H    10.21999931  31.21999931  53.34000015
H     8.01000023  30.97999954  54.09000015
H     5.56999969  31.50000000  53.80000305
H     6.34999990  33.09999847  49.93000031
H    14.48999977  34.24000168  49.93999863
H     3.84999990  32.45999908  52.63000107
H     4.02999973  33.46999741  51.23000336
S    15.54999924  31.97000122  54.13999939
C    18.19000053  32.55000305  53.50000000
C    16.86000061  32.69000244  53.18000031
C    16.38000107  33.22999954  51.93999863
C    17.30999947  33.68000031  51.03000259
C    18.70000076  33.62999725  51.31999969
C    19.65999985  34.25000000  50.47999954
C    21.01000023  34.13999939  50.72000122
C    21.44000053  33.59000015  51.95000076
C    20.52000046  33.09000015  52.84999847
C    19.12999916  32.99000168  52.52999878
C    14.93000031  33.15000153  51.79999924
C    14.39000034  32.37999725  52.84999847
C    13.07999992  31.91999817  52.78999710
C    22.89999962  33.25999832  52.12999725
H    23.27577209  33.62158966  53.08715057
H    18.51000023  32.13000107  54.45000076
H    17.04000092  34.29999924  50.18000031
H    19.27000046  34.52999878  49.50000000
H    21.70999908  34.47999954  49.97000122
H    20.84000015  32.69000244  53.80000305
H    12.51000023  31.42000008  53.56999969
H    23.40999985  33.84999847  51.36000061
H    22.88999939  32.18000031  51.98999786
