96

S    15.27999973  36.61999893  57.49000168
C    17.90999985  36.97999954  56.73999786
C    16.65999985  36.52000046  56.38999939
C    16.21000099  36.02000046  55.12000275
C    17.21999931  35.95999908  54.18000031
C    18.54999924  36.37000275  54.45999908
C    19.68000031  36.19999695  53.61000061
C    20.97999954  36.53000259  53.92000198
C    21.30000114  37.06999969  55.19000244
C    20.22999954  37.36000061  56.00999832
C    18.90999985  36.93000031  55.72999954
C    14.80000019  35.68999863  55.05000305
C    14.13000011  36.05999756  56.25000000
C    12.75000000  36.06999969  56.37000275
C    22.72999954  37.27999878  55.65000153
H    23.01505852  36.60298157  56.45529175
H    18.22000122  37.37999725  57.70000076
H    16.95999908  35.52999878  53.22000122
H    19.54000092  35.52000046  52.76000214
H    21.77000046  36.31000137  53.20999908
H    20.45999908  37.76000214  57.00000000
H    12.13000107  36.25000000  57.23999786
H    23.40999985  37.06999969  54.81999969
H    22.95999908  38.32999802  55.89000320
S    11.54000092  34.94999695  52.71999741
C     8.82000065  35.31999969  53.37999725
C    10.14999962  35.42000198  53.72000122
C    10.53999996  35.81000137  55.04000092
C     9.53999996  36.19999695  55.90999985
C     8.17000008  36.02000046  55.59000015
C     7.09999990  36.15999985  56.52000046
C     5.78999996  35.84000015  56.25000000
C     5.40999985  35.33000183  54.98000336
C     6.42000008  35.15000153  54.06000137
C     7.76000023  35.52999878  54.29999924
C    11.97999954  35.75999832  55.24000168
C    12.64000034  35.38999939  54.03999710
C    14.01999950  35.29999924  53.95000076
C     3.98999977  34.90000153  54.72999954
H     3.63375998  35.44148636  53.85364914
H     8.64999962  34.77000046  52.45999908
H     9.73999977  36.50000000  56.93000031
H     7.36000013  36.37000275  57.56000137
H     5.05000019  35.95999908  57.04000092
H     6.19000006  34.66999817  53.11000061
H    14.44000053  35.15999985  52.95999908
H     3.52999973  35.18000031  55.68999863
H     4.05000019  33.81000137  54.72999954
S    11.89000034  33.06999969  49.64000320
C     9.22999954  32.62000275  50.31999969
C    10.55999947  32.40999985  50.59999847
C    11.03999996  31.65999985  51.72999954
C    10.11000061  31.25999832  52.67000198
C     8.75000000  31.60000038  52.52999878
C     7.72000027  31.09000015  53.36999893
C     6.40999985  31.38999939  53.06999969
C     5.95000029  32.09000015  51.93000031
C     6.93000031  32.49000168  51.04000092
C     8.30000019  32.29000092  51.35000229
C    12.48000050  31.83000183  51.88999939
C    13.09000015  32.56000137  50.84000015
C    14.34999943  33.13000107  51.03000259
C     4.51000023  32.47999954  51.72000122
H     4.03543901  31.85669518  50.96212006
H     8.85000038  33.11000061  49.43000031
H    10.34999943  30.55999947  53.47000122
H     8.01999950  30.50000000  54.22999954
H     5.66999960  31.07999992  53.80000305
H     6.67999983  33.09999847  50.17000198
H    14.80999947  33.70999908  50.22999573
H     3.93000007  32.42000198  52.64999771
H     4.48000002  33.54999924  51.50000000
S    15.75000000  31.54999924  54.33000183
C    18.36000061  32.04000092  53.59000397
C    17.02999878  32.29000092  53.34999847
C    16.59000015  33.15000153  52.29000092
C    17.53999901  33.61999893  51.39999771
C    18.93000031  33.45999908  51.59000015
C    19.98999977  33.97000122  50.79000092
C    21.30000114  33.61999893  51.00000000
C    21.64999962  32.81999969  52.11999893
C    20.68000031  32.49000168  53.04000092
C    19.29999924  32.63000107  52.70999908
C    15.17000008  32.88000107  52.14000320
C    14.55999947  32.04000092  53.09999847
C    13.25000000  31.57999992  53.04000092
C    23.08000183  32.50000000  52.48000336
H    23.41443825  32.96963501  53.40504074
H    18.71000099  31.40000153  54.38999939
H    17.29999924  33.98999786  50.40000153
H    19.75000000  34.72999954  50.05000305
H    22.04000092  34.03000259  50.31000137
H    21.04000092  31.93000031  53.89999771
H    12.88000011  31.18000031  53.96999741
H    23.82999802  32.75000000  51.72999954
H    23.19000053  31.42000008  52.64999771
