96

S    14.85000038  37.07999802  57.43000031
C    17.51000023  37.06999969  56.84000015
C    16.26000023  36.70000076  56.40999603
C    15.92000008  36.25000000  55.10000229
C    16.97000122  36.08000183  54.22000122
C    18.30999947  36.36000061  54.61000061
C    19.37999916  36.18999863  53.68999863
C    20.68000031  36.47999954  54.02999878
C    20.86999893  37.19000244  55.24000168
C    19.88999939  37.36000061  56.19999695
C    18.55999947  36.98999786  55.87999725
C    14.47000027  36.25999832  54.93999863
C    13.75000000  36.61999893  56.11000061
C    12.35999966  36.60000229  56.18000031
C    22.27000046  37.65000153  55.59000015
H    22.80557442  36.97160721  56.25411224
H    17.76000023  37.23999786  57.88000107
H    16.80999947  35.79000092  53.18999863
H    19.19000053  35.89999771  52.65999603
H    21.45000076  36.31000137  53.29000092
H    20.06000137  37.73999786  57.21000290
H    11.84000015  36.98999786  57.04999924
H    22.88000107  37.81999969  54.69999695
H    22.17000008  38.62999725  56.09000397
S    11.26000023  35.56999969  52.52999878
C     8.56999969  35.30999756  53.15999985
C     9.85000038  35.58000183  53.59000397
C    10.14999962  36.02000046  54.93000031
C     9.10000038  36.18999863  55.80999756
C     7.77999973  35.84999847  55.43000031
C     6.63000011  35.91999817  56.27999878
C     5.36000013  35.61000061  55.86000061
C     5.12000036  35.15999985  54.52999878
C     6.21000004  34.95999908  53.70999908
C     7.53000021  35.30999756  54.12000275
C    11.57999992  36.18999863  55.08999634
C    12.31999969  35.95999908  53.89999771
C    13.69999981  35.95000076  53.81000137
C     3.70000005  34.83000183  54.13000107
H     3.28726387  35.49180222  53.36857224
H     8.40999985  34.84999847  52.18999863
H     9.40999985  36.60000229  56.77000046
H     6.84999990  36.34000015  57.25999832
H     4.56999969  35.72999954  56.59999847
H     6.02999973  34.77000046  52.65999603
H    14.18000031  35.88999939  52.84000015
H     3.14000010  35.00000000  55.06000137
H     3.52999973  33.79000092  53.82999802
S    11.97999954  33.52999878  49.51000214
C     9.27999973  33.08000183  50.20999908
C    10.62000084  32.90000153  50.45999908
C    11.10000038  32.34000015  51.69000244
C    10.18000031  31.84999847  52.58999634
C     8.78999996  31.96000099  52.34000397
C     7.82000017  31.42999840  53.23999786
C     6.47000027  31.56999969  52.97999954
C     6.01999998  32.16999817  51.77999878
C     6.93000031  32.73999786  50.90999985
C     8.32999992  32.54000092  51.11000061
C    12.53999901  32.49000168  51.83000183
C    13.17000008  33.16999817  50.77000046
C    14.52000046  33.52999878  50.79999924
C     4.53000021  32.34000015  51.58000183
H     4.17432976  32.02701187  50.59835052
H     8.96000004  33.70999908  49.38999939
H    10.57000065  31.44000053  53.52000427
H     8.32999992  30.89999962  54.02999878
H     5.79999971  31.18999863  53.75000000
H     6.72999954  33.34999847  50.04000092
H    14.98999977  33.90999985  49.89999771
H     3.96000004  31.77999878  52.32999802
H     4.28000021  33.40999985  51.65000153
S    15.72999954  31.94000053  54.27999878
C    18.42000008  32.22999954  53.59000397
C    17.10000038  32.43999863  53.27000046
C    16.72999954  33.22000122  52.11999893
C    17.75000000  33.62999725  51.29000092
C    19.11999893  33.45999908  51.59999847
C    20.12000084  34.09000015  50.80999756
C    21.45000076  33.86000061  51.05999756
C    21.77000046  33.13999939  52.25000000
C    20.85000038  32.59999847  53.11999893
C    19.47000122  32.72000122  52.78999710
C    15.27999973  33.23999786  51.93999863
C    14.65999985  32.50999832  52.97999954
C    13.34000015  32.06999969  52.90999985
C    23.23999786  33.02999878  52.56000137
H    23.48826599  33.68258667  53.39701462
H    18.52000046  31.86000061  54.61000061
H    17.43000031  33.95000076  50.30000305
H    19.88999939  34.68000031  49.92000198
H    22.17000008  34.18999863  50.33000183
H    20.93000031  32.13999939  54.09999847
H    12.84000015  31.40000153  53.60000229
H    23.87000084  33.36000061  51.72000122
H    23.54000092  32.04999924  52.95000076
