96

S    15.18000031  37.29000092  57.44999695
C    17.93000031  37.16999817  56.75000000
C    16.61000061  36.91999817  56.46999741
C    16.26000023  36.34000015  55.20999908
C    17.22999954  36.01000214  54.27000046
C    18.59000015  36.25999832  54.52999878
C    19.56999969  36.31000137  53.50000000
C    20.82999992  36.81999969  53.72000122
C    21.25000000  37.21999741  55.00999832
C    20.27000046  37.31999969  55.97999954
C    18.93000031  36.88999939  55.77999878
C    14.81999969  36.22000122  55.02999878
C    14.11999893  36.72999954  56.14999771
C    12.72999954  36.68999863  56.25000000
C    22.67999840  37.59000015  55.34999847
H    23.05734825  36.84242630  56.04773712
H    18.22999954  37.59000015  57.70000076
H    17.02999878  35.95000076  53.20000076
H    19.29000092  35.95000076  52.51999664
H    21.60000038  36.65000153  52.97000122
H    20.50000000  37.79999924  56.93000031
H    12.25999928  37.06000137  57.15000153
H    23.36000061  37.56000137  54.48999786
H    22.76000023  38.54999924  55.86999893
S    11.61999893  35.54999924  52.61000061
C     8.93999958  35.35000229  53.30999756
C    10.21000004  35.72999954  53.67000198
C    10.52000046  36.20999908  54.98000336
C     9.46000004  36.47999954  55.81999969
C     8.11999989  36.20999908  55.45000076
C     7.04999971  36.50000000  56.35000229
C     5.77000046  36.05999756  56.12999725
C     5.51999998  35.36000061  54.91000366
C     6.48999977  35.20000076  53.95000076
C     7.85000038  35.56000137  54.19000244
C    11.97000027  36.31000137  55.13000107
C    12.68000031  35.95000076  53.96999741
C    14.06999969  35.86000061  53.89999771
C     4.09000015  34.92000198  54.75000000
H     3.63666868  35.42999649  53.90000153
H     8.82999992  35.02000046  52.28000259
H     9.56999969  36.90000153  56.81999969
H     7.30999994  36.93000031  57.31999969
H     5.05999994  36.18999863  56.93999863
H     6.11999989  34.75000000  53.04000092
H    14.51000023  35.56999969  52.95000076
H     3.51000023  35.20999908  55.63000107
H     4.09999990  33.84000015  54.61000061
S    11.76000023  33.81999969  49.79999924
C     9.15000057  33.06999969  50.25000000
C    10.47000027  32.90000153  50.59999847
C    10.95999908  32.15999985  51.72000122
C     9.98999977  31.56999969  52.50999832
C     8.61999989  31.86000061  52.30999756
C     7.63999987  31.34000015  53.20000076
C     6.28999996  31.34000015  52.95000076
C     5.84000015  32.09000015  51.83000183
C     6.76000023  32.63999939  50.97000122
C     8.17000008  32.50999832  51.11000061
C    12.35000038  32.50000000  51.97999954
C    12.97999954  33.27000046  50.97000122
C    14.34000015  33.55999756  50.97999954
C     4.36999989  32.40999985  51.68000031
H     3.97152233  31.86209297  50.82611847
H     8.92000008  33.72000122  49.40999985
H    10.36000061  30.98999977  53.34999847
H     7.92999983  30.88000107  54.13999939
H     5.63000011  30.89999962  53.68999863
H     6.43000031  33.02999878  50.00999832
H    14.68999958  34.20999908  50.18000031
H     3.84999990  32.14999771  52.61000061
H     4.23000002  33.47999954  51.49000168
S    15.62000084  31.76000214  54.27000046
C    18.34000015  32.29000092  53.67000198
C    17.00000000  32.45999908  53.40000153
C    16.54999924  33.15000153  52.22999954
C    17.47999954  33.61999893  51.31999969
C    18.86999893  33.45999908  51.52999878
C    19.85999870  33.97000122  50.65000153
C    21.18000031  33.81999969  50.98999786
C    21.61999893  33.00000000  52.05999756
C    20.66999817  32.59000015  52.97999954
C    19.27999878  32.79000092  52.72999573
C    15.11000061  33.02999878  52.02000046
C    14.45000076  32.34999847  53.08000183
C    13.12000084  31.96000099  53.01000214
C    23.08000183  32.69000244  52.30999756
H    23.52136040  33.15271759  53.19271851
H    18.59000015  31.73999977  54.56999969
H    17.20000076  34.06999969  50.37000275
H    19.55999947  34.57999802  49.79999924
H    21.97000122  34.20000076  50.34000015
H    21.02999878  32.04000092  53.83999634
H    12.71999931  31.22999954  53.70999908
H    23.62999916  33.02000046  51.42000198
H    23.22000122  31.60000038  52.25000000
