96

S    14.94999981  37.29000092  57.58999634
C    17.67000008  37.38999939  56.88999939
C    16.36999893  37.06999969  56.55000305
C    16.01000023  36.48999786  55.28999710
C    17.02000046  36.25000000  54.38000107
C    18.37000084  36.55999756  54.64000320
C    19.44000053  36.41999817  53.70999908
C    20.76000023  36.68000031  53.96999741
C    21.04000092  37.27000046  55.24000168
C    20.03000069  37.44999695  56.14999771
C    18.63999939  37.26000214  55.87999725
C    14.56999969  36.32999802  55.13000107
C    13.88000011  36.86999893  56.25000000
C    12.50000000  37.06000137  56.18000031
C    22.40999985  37.85000229  55.51000214
H    22.85924530  37.27952957  56.32292175
H    18.09000015  37.69000244  57.84999847
H    16.77999878  35.81999969  53.40999985
H    19.11999893  35.96999741  52.77000046
H    21.53000069  36.54000092  53.22000122
H    20.30999947  37.78000259  57.15000153
H    12.03999996  37.61000061  57.00000000
H    23.02999878  37.80999756  54.59999847
H    22.46000099  38.93000031  55.70000076
S    11.43000031  35.45000076  52.69000244
C     8.75000000  35.40000153  53.36000061
C    10.01999950  35.79000092  53.72000122
C    10.31999969  36.47999954  54.93999863
C     9.28999996  36.77000046  55.80999756
C     7.95000029  36.40999985  55.50000000
C     6.84000015  36.55999756  56.38000107
C     5.59000015  36.11999893  56.02000427
C     5.32000017  35.52999878  54.75000000
C     6.38000011  35.38000107  53.88000107
C     7.69999981  35.72999954  54.26000214
C    11.76000023  36.63000107  55.07999802
C    12.46999931  36.06999969  53.99000168
C    13.85000038  35.88999939  54.01000214
C     3.88999987  35.23999786  54.36000061
H     3.36960125  35.91722870  53.68276978
H     8.59000015  34.79999924  52.47000122
H     9.44999981  37.19000244  56.79999924
H     6.94999981  36.76000214  57.44999695
H     4.73000002  36.24000168  56.66999817
H     6.15000010  35.02999878  52.88000107
H    14.29999924  35.43000031  53.13999939
H     3.32999992  35.22999954  55.30000305
H     3.96000004  34.25000000  53.89999771
S    11.38000011  33.52000046  49.61000061
C     8.71999931  33.09000015  50.28999710
C    10.03999901  32.97999954  50.65000153
C    10.46000004  32.36999893  51.86999893
C     9.44999981  31.78999901  52.63000107
C     8.07999992  31.98999786  52.34000397
C     7.05999947  31.60000038  53.25000000
C     5.75999975  32.00999832  53.06000137
C     5.36999989  32.62000275  51.84000015
C     6.30999994  33.04999924  50.93000031
C     7.68000031  32.75000000  51.18999863
C    11.92000008  32.36000061  51.95999908
C    12.53000069  33.02000046  50.86999893
C    13.89000034  33.29000092  50.77000046
C     3.91000009  32.88999939  51.58000183
H     3.54111481  32.47145844  50.64360046
H     8.47999954  33.48999786  49.31000137
H     9.72999954  31.12999916  53.43999863
H     7.36000013  31.04999924  54.13999939
H     4.96000004  31.81999969  53.76999664
H     6.15999985  33.79000092  50.13999939
H    14.27000046  33.97999954  50.01999664
H     3.30000019  32.52999878  52.42000198
H     3.70000005  33.95999908  51.50000000
S    15.26000023  31.56999969  54.09000015
C    17.88999939  32.30999756  53.54000092
C    16.54999924  32.43999863  53.26000214
C    16.15999985  33.15999985  52.08000183
C    17.13999939  33.74000168  51.30000305
C    18.51000023  33.68999863  51.65999985
C    19.43000031  34.00000000  50.61999893
C    20.76000023  33.77999878  50.87999725
C    21.21999931  33.18000031  52.09000015
C    20.30999947  32.72999954  53.02000046
C    18.92000008  32.99000168  52.84999847
C    14.73000050  32.99000168  51.84999847
C    14.14000034  32.18000031  52.84999847
C    12.79999924  31.81999969  52.90000153
C    22.70999908  33.15000153  52.32999802
H    23.06639290  33.47788239  53.30651093
H    18.11000061  31.57999992  54.31999969
H    16.87999916  34.10000229  50.31000137
H    19.04000092  34.41999817  49.69999695
H    21.45000076  34.22000122  50.15999603
H    20.66999817  32.04000092  53.76999664
H    12.43999958  31.14999962  53.67000198
H    23.26999855  33.58000183  51.49000168
H    22.95000076  32.07999802  52.25000000
