96

S    14.88000011  36.84999847  57.41000366
C    17.64999962  36.93000031  56.93000031
C    16.36999893  36.77000046  56.45999908
C    16.06999969  36.38000107  55.11000061
C    17.17000008  36.19999695  54.29000092
C    18.50000000  36.45999908  54.69999695
C    19.55999947  36.38999939  53.75000000
C    20.86000061  36.63999939  54.15000153
C    21.14999962  37.04000092  55.47999954
C    20.13000107  37.09000015  56.39999771
C    18.77000046  36.83000183  56.05999756
C    14.65000057  36.15999985  54.89999771
C    13.83999920  36.56999969  56.00000000
C    12.46000099  36.72000122  55.97999954
C    22.59000015  37.37999725  55.79000092
H    22.93916893  36.90969467  56.70923615
H    17.86999893  37.30999756  57.91999817
H    16.98999977  35.97999954  53.25000000
H    19.50000000  36.17000198  52.69000244
H    21.61999893  36.55999756  53.36999893
H    20.29999924  37.29000092  57.44999695
H    11.97999954  37.36000061  56.72000122
H    23.13999939  37.06999969  54.88999939
H    22.73999977  38.45999908  55.90000153
S    11.50000000  35.45999908  52.36999893
C     8.76000023  35.33000183  52.95999908
C    10.03000069  35.72000122  53.33000183
C    10.31000042  36.36000061  54.58000183
C     9.26000023  36.70000076  55.41999817
C     7.96999979  36.18000031  55.15999603
C     6.86999989  36.50000000  56.00000000
C     5.58000040  36.15999985  55.65999985
C     5.33999968  35.45999908  54.45000076
C     6.38999987  35.15000153  53.61000061
C     7.73000002  35.50000000  53.92000198
C    11.73999977  36.34999847  54.84000397
C    12.51999950  35.88000107  53.75999832
C    13.90999985  35.86000061  53.75000000
C     4.00000000  34.90000153  54.03999710
H     3.43180895  35.58893204  53.41498947
H     8.55000019  34.73999786  52.06999969
H     9.46000004  37.27000046  56.31999969
H     7.13999987  36.93000031  56.95999908
H     4.74000025  36.34000015  56.31999969
H     6.19999981  34.68000031  52.63999939
H    14.42999935  35.52000046  52.85999680
H     3.51000023  34.71999741  55.00999832
H     4.09999990  33.88000107  53.64999771
S    15.34999943  37.63999939  51.50000000
C    18.12999916  37.83000183  50.98999786
C    16.87000084  37.47000122  50.59999847
C    16.51000023  36.97999954  49.29999924
C    17.51000023  36.77000046  48.36000061
C    18.82999992  37.02999878  48.77999878
C    19.90999985  36.93000031  47.84999847
C    21.21000099  37.25000000  48.13999939
C    21.47000122  37.84000015  49.40999985
C    20.50000000  37.97000122  50.38000107
C    19.18000031  37.54000092  50.07999802
C    15.07999992  36.88999939  49.02000046
C    14.28999996  37.13999939  50.17000198
C    12.90999985  37.29999924  50.20999908
C    22.85000038  38.36000061  49.72999954
H    23.37750626  37.79685211  50.49987030
H    18.36000061  38.31000137  51.95000076
H    17.28000069  36.67000198  47.29999924
H    19.52000046  36.55999756  46.90000153
H    22.01999855  37.06999969  47.43999863
H    20.81999969  38.48999786  51.27999878
H    12.38999939  37.70000076  51.07999802
H    23.39999962  38.41999817  48.79000092
H    22.63000107  39.38000107  50.06000137
S    11.97000027  36.17000198  46.51000214
C     9.23999977  36.04999924  47.09999847
C    10.52000046  36.36000061  47.50000000
C    10.80000019  36.72000122  48.86000061
C     9.72999954  37.02999878  49.68000031
C     8.39999962  36.88999939  49.22999954
C     7.30999994  36.83000183  50.13999939
C     6.01000023  36.72999954  49.71000290
C     5.77000046  36.15999985  48.43000031
C     6.78999996  36.08000183  47.50999832
C     8.11999989  36.37000275  47.90999985
C    12.23000050  36.86000061  49.06999969
C    12.98999977  36.61999893  47.88999939
C    14.37999916  36.65999985  47.84000015
C     4.35999966  35.66999817  48.18000031
H     3.93422842  36.27317429  47.37813187
H     9.13000011  35.72999954  46.06999969
H     9.94000053  37.13999939  50.73999786
H     7.50000000  36.93000031  51.20999908
H     5.26999998  36.75000000  50.50000000
H     6.61000013  35.66999817  46.52000046
H    14.91000080  36.34999847  46.93999863
H     3.88000011  35.79999924  49.15999985
H     4.46000004  34.61000061  47.95000076
