96

S    14.80999947  37.20000076  57.22999954
C    17.56000137  37.09999847  56.83000183
C    16.29999924  36.79000092  56.37000275
C    16.00000000  36.25000000  55.06999969
C    17.02999878  36.19999695  54.15999985
C    18.38000107  36.38000107  54.56999969
C    19.52000046  36.19999695  53.74000168
C    20.81999969  36.47999954  54.09000015
C    20.97999954  36.93999863  55.41999817
C    19.95000076  37.04000092  56.31999969
C    18.60000038  36.88999939  55.89000320
C    14.55999947  36.22999954  54.85000229
C    13.73999977  36.77000046  55.86999893
C    12.35999966  36.93000031  55.87999725
C    22.29999924  37.56000137  55.80999756
H    22.95426559  36.83462143  56.29358673
H    17.78000069  37.61000061  57.76000214
H    16.81999969  35.72999954  53.20000076
H    19.32999992  35.86000061  52.71999741
H    21.56999969  36.40999985  53.30999756
H    20.22999954  37.23999786  57.35000229
H    11.82000065  37.07999802  56.81000137
H    22.76000023  37.97999954  54.91000366
H    22.04999924  38.43000031  56.43000031
S    11.31999969  35.45999908  52.38999939
C     8.55000019  35.51000214  53.06000137
C     9.85999966  35.81999969  53.33000183
C    10.19999981  36.38999939  54.59999847
C     9.19999981  36.60000229  55.52999878
C     7.86999989  36.15999985  55.33000183
C     6.80999994  36.31000137  56.27999878
C     5.50000000  35.97999954  56.00999832
C     5.21000004  35.26000214  54.81999969
C     6.19999981  35.16999817  53.87000275
C     7.55000019  35.56999969  54.06000137
C    11.64000034  36.53000259  54.75000000
C    12.41000080  35.98999786  53.68999863
C    13.78999901  35.90999985  53.72000122
C     3.79999995  34.80999756  54.50000000
H     3.35932589  35.47100830  53.75369644
H     8.23999977  35.07999802  52.11000061
H     9.51000023  36.95000076  56.51000214
H     6.94999981  36.74000168  57.27000427
H     4.76999998  36.15999985  56.79000092
H     5.96000004  34.80999756  52.87000275
H    14.27000046  35.54000092  52.81999969
H     3.07000017  34.72999954  55.31000137
H     3.81999993  33.80000305  54.08000183
S    15.52000046  37.52000046  51.26999664
C    18.25000000  37.37999725  50.61000061
C    16.94000053  37.16999817  50.26000214
C    16.53000069  36.65000153  48.99000168
C    17.53000069  36.38000107  48.06999969
C    18.89999962  36.65000153  48.31999969
C    20.00000000  36.34999847  47.47000122
C    21.28999901  36.68999863  47.78999710
C    21.54999924  37.31999969  49.02999878
C    20.58000183  37.45999908  50.00000000
C    19.25000000  37.13000107  49.62999725
C    15.07999992  36.68000031  48.85000229
C    14.35999966  37.02000046  50.01999664
C    12.97999954  37.13000107  50.10000229
C    22.96999931  37.66999817  49.45000076
H    23.30533791  37.22050476  50.38466644
H    18.50000000  37.90000153  51.52999878
H    17.32999992  35.98999786  47.08000183
H    19.71999931  36.04000092  46.46999741
H    22.10000038  36.38999939  47.12999725
H    20.71000099  37.88999939  50.98999786
H    12.41000080  37.36999893  50.98999786
H    23.65999985  37.56999969  48.60000229
H    23.03999901  38.74000168  49.71000290
S    11.87000084  36.09999847  46.42000198
C     9.15000057  36.01000214  47.05999756
C    10.43000031  36.36000061  47.43000031
C    10.78999996  36.70999908  48.76999664
C     9.77999973  36.84000015  49.69999695
C     8.43000031  36.56999969  49.36999893
C     7.35000038  36.77999878  50.27000046
C     6.06999969  36.47999954  49.86000061
C     5.78999996  35.88000107  48.60000229
C     6.80999994  35.72999954  47.69000244
C     8.13000011  36.13999939  48.02999878
C    12.23000050  36.83000183  48.95000076
C    12.94000053  36.53000259  47.76000214
C    14.32999992  36.38999939  47.70000076
C     4.41000032  35.38000107  48.23999786
H     3.92489219  35.95071411  47.44813156
H     9.06000042  35.47999954  46.11000061
H    10.07999992  37.26000214  50.65999985
H     7.59999990  37.14999771  51.25999832
H     5.23999977  36.61000061  50.54999924
H     6.60000038  35.33000183  46.70000076
H    14.75999928  35.84999847  46.86999893
H     3.78999996  35.59000015  49.12000275
H     4.35999966  34.27999878  48.18999863
