96

S    15.03000069  37.23999786  57.28000259
C    17.72999954  37.38999939  56.59000015
C    16.45000076  37.00000000  56.24000168
C    16.09000015  36.47999954  54.95999908
C    17.13999939  36.22999954  54.09000015
C    18.43000031  36.74000168  54.33000183
C    19.48999977  36.74000168  53.37999725
C    20.76999855  37.11999893  53.69999695
C    21.07999992  37.59999847  55.00000000
C    20.07999802  37.69000244  55.93999863
C    18.72999954  37.36999893  55.59000015
C    14.65000057  36.52000046  54.73999786
C    13.96999931  37.04000092  55.86999893
C    12.57999992  37.11000061  55.93000031
C    22.47999954  37.84000015  55.52999878
H    22.85705948  37.07876968  56.21297455
H    17.88999939  37.76000214  57.60000229
H    16.98999977  36.08000183  53.02000046
H    19.31999969  36.22999954  52.43000031
H    21.56999969  36.86000061  53.02000046
H    20.38000107  37.93999863  56.95000076
H    12.02000046  37.34000015  56.83000183
H    23.22999954  37.99000168  54.75000000
H    22.49000168  38.72000122  56.18999863
S    11.40999985  35.66999817  52.41000366
C     8.65999985  35.61999893  53.20000076
C     9.98999977  35.89999771  53.44999695
C    10.44000053  36.25000000  54.75999832
C     9.48000050  36.43000031  55.72999954
C     8.09000015  36.20999908  55.52999878
C     7.09999990  36.34000015  56.55000305
C     5.78999996  36.19999695  56.17000198
C     5.36000013  35.82999802  54.86999893
C     6.32000017  35.54000092  53.93000031
C     7.69000006  35.79000092  54.22000122
C    11.85999966  36.59000015  54.86000061
C    12.53999901  36.13999939  53.69999695
C    13.93000031  36.08000183  53.62999725
C     3.94000006  35.40999985  54.58000183
H     3.57160640  35.96258926  53.71569061
H     8.42000008  35.09000015  52.28000259
H     9.81000042  36.75000000  56.72000122
H     7.40999985  36.72000122  57.51999664
H     5.07000017  36.30000305  56.98999786
H     5.98999977  35.28000259  52.93000031
H    14.37000084  35.52999878  52.81000137
H     3.30000019  35.59999847  55.45000076
H     3.91000009  34.33000183  54.38999939
S    15.40999985  37.77000046  51.37000275
C    18.07999992  37.85000229  50.66999817
C    16.82999992  37.33000183  50.40999985
C    16.45000076  36.75000000  49.15999985
C    17.48999977  36.61999893  48.26000214
C    18.82999992  36.98999786  48.50000000
C    19.92000008  36.93000031  47.57999802
C    21.14999962  37.52000046  47.77000046
C    21.42999840  38.09000015  49.03999710
C    20.43999863  38.15999985  49.99000168
C    19.13999939  37.63999939  49.75000000
C    15.00000000  36.70999908  48.99000168
C    14.28999996  37.20000076  50.12000275
C    12.93000031  37.47999954  50.06000137
C    22.78000069  38.63999939  49.41999817
H    23.19338036  38.10545731  50.27526474
H    18.15999985  38.36000061  51.63000107
H    17.26000023  36.08000183  47.35000229
H    19.75000000  36.45999908  46.60999680
H    21.96000099  37.56000137  47.04999924
H    20.56999969  38.77999878  50.87999725
H    12.42000008  37.92000198  50.91999817
H    23.38000107  38.39999771  48.52000427
H    22.78000069  39.71999741  49.56999969
S    11.87000084  35.82999802  46.62000275
C     9.11000061  35.95999908  47.12999725
C    10.39999962  36.24000168  47.51999664
C    10.72000027  36.86999893  48.75999832
C     9.71000004  37.13000107  49.66999817
C     8.38000011  36.75000000  49.38999939
C     7.28999996  36.90000153  50.30000305
C     6.00000000  36.54999924  49.97000122
C     5.75000000  35.86000061  48.75000000
C     6.80999994  35.59000015  47.91999817
C     8.10999966  36.15000153  48.11000061
C    12.15000057  37.04999924  48.97999573
C    12.89000034  36.47999954  47.91999817
C    14.27999973  36.37000275  47.84000015
C     4.38000011  35.29000092  48.46000290
H     4.02479172  35.85833359  47.60039520
H     8.97000027  35.59999847  46.11000061
H     9.92000008  37.40999985  50.70000076
H     7.59999990  37.36000061  51.23000336
H     5.17000008  36.79999924  50.61000061
H     6.76999998  34.93000031  47.05999756
H    14.72000027  35.84999847  47.00000000
H     3.61000013  35.35000229  49.22999954
H     4.44999981  34.26000214  48.08000183
