96

S    14.52999973  36.95999908  57.27000427
C    17.20999908  37.31999969  56.55000305
C    15.95000076  36.90000153  56.19999695
C    15.62999916  36.40000153  54.88999939
C    16.63999939  36.06999969  54.00000000
C    17.93000031  36.55999756  54.29000092
C    18.98999977  36.34999847  53.36000061
C    20.26000023  36.77999878  53.64999771
C    20.55999947  37.31999969  54.93000031
C    19.57999992  37.40000153  55.89000320
C    18.22000122  37.13000107  55.58000183
C    14.19000053  36.25999832  54.72999954
C    13.47000027  36.67000198  55.87999725
C    12.10999966  36.95000076  55.86999893
C    21.97999954  37.80999756  55.13999939
H    22.56199837  37.02926636  55.62973404
H    17.52000046  37.79000092  57.48000336
H    16.40999985  35.47999954  53.11999893
H    18.78999901  35.90999985  52.37999725
H    21.07000160  36.47000122  52.98999786
H    19.82999992  37.59999847  56.93000031
H    11.54999924  37.14999771  56.79000092
H    22.39999962  38.01000214  54.15000153
H    22.04999924  38.75000000  55.68999863
S    10.97000027  35.89999771  52.25000000
C     8.23999977  35.93000031  52.94000244
C     9.55999947  36.11000061  53.29999924
C     9.92999935  36.53000259  54.61000061
C     8.92000008  36.68999863  55.54999924
C     7.57000017  36.36000061  55.27999878
C     6.56000042  36.27999878  56.26999664
C     5.26000023  36.04999924  55.86999893
C     4.92000008  35.65999985  54.54999924
C     5.88999987  35.70000076  53.56999969
C     7.22000027  36.04999924  53.92000198
C    11.38000011  36.58000183  54.73999786
C    12.07999992  36.06999969  53.61999893
C    13.45000076  35.84999847  53.61000061
C     3.53999996  35.15999985  54.20999908
H     3.18469977  35.65742111  53.30753708
H     7.95000029  35.54999924  51.95999908
H     9.21000004  36.79000092  56.59999847
H     6.76000023  36.31999969  57.34000397
H     4.46999979  35.91999817  56.59999847
H     5.72000027  35.34000015  52.56000137
H    13.97999954  35.68000031  52.68000031
H     2.75999999  35.16999817  54.98000336
H     3.63000011  34.08000183  54.02000046
S    11.46000004  33.32999802  49.59999847
C     8.76999950  32.88000107  50.31999969
C    10.11000061  32.81999969  50.63000107
C    10.54999924  32.33000183  51.90000153
C     9.63999939  31.87000084  52.83000183
C     8.25000000  31.91999817  52.56999969
C     7.23999977  31.35999870  53.40999985
C     5.92000008  31.31999969  53.02000046
C     5.50000000  32.06000137  51.88999939
C     6.44000006  32.52999878  51.00999832
C     7.82999992  32.45999908  51.30000305
C    12.00000000  32.47999954  52.02999878
C    12.61999989  33.09000015  50.90999985
C    13.99000072  33.34000015  50.84000015
C     4.02999973  32.34000015  51.65000153
H     3.69596863  31.82829285  50.74740601
H     8.39999962  33.25999832  49.36999893
H     9.90999985  31.47000122  53.80000305
H     7.49000025  30.68000031  54.22000122
H     5.17000008  30.71000099  53.52000427
H     6.01999998  32.88999939  50.06999969
H    14.47999954  33.82999802  50.00000000
H     3.55999994  31.78999901  52.47000122
H     3.86000013  33.43000031  51.63000107
S    15.36999893  31.65999985  54.16999817
C    18.07999992  32.38999939  53.60000229
C    16.73999977  32.37999725  53.29999924
C    16.22999954  33.00000000  52.11000061
C    17.11000061  33.62999725  51.25000000
C    18.51000023  33.52000046  51.45999908
C    19.44000053  33.97999954  50.47999954
C    20.78000069  34.02000046  50.79000092
C    21.25999832  33.63999939  52.05999756
C    20.36999893  33.18999863  53.01000214
C    18.98999977  33.00000000  52.70999908
C    14.78000069  33.00000000  51.93999863
C    14.18000031  32.26000214  52.98999786
C    12.81000042  32.04000092  53.06999969
C    22.70000076  33.98999786  52.35000229
H    23.15397644  33.34450531  53.10189819
H    18.45999908  31.96000099  54.52000046
H    16.82999992  34.22000122  50.38000107
H    19.05999947  34.38000107  49.54000092
H    21.53000069  34.33000183  50.06999969
H    20.76999855  33.09999847  54.02000046
H    12.43000031  31.51000023  53.94000244
H    22.60000038  35.02000046  52.71999741
H    23.22999954  34.05999756  51.38999939
