96

S    15.21999931  37.26000214  57.30999756
C    17.88999939  37.19000244  56.56999969
C    16.59000015  36.91999817  56.23000336
C    16.22999954  36.25000000  55.00999832
C    17.28999901  35.98999786  54.16999817
C    18.63999939  36.31000137  54.43999863
C    19.69000053  36.37000275  53.47000122
C    20.95000076  36.86999893  53.73000336
C    21.28000069  37.27999878  55.05000305
C    20.29999924  37.31999969  56.02000427
C    18.96999931  36.93000031  55.68999863
C    14.78000069  36.22000122  54.92000198
C    14.09000015  36.68999863  56.06999969
C    12.71999931  36.91999817  56.11000061
C    22.60999870  37.99000168  55.19000244
H    23.31467628  37.31379700  55.67402267
H    18.05999947  37.65999985  57.54000092
H    17.10000038  35.61000061  53.16999817
H    19.47000122  36.02999878  52.45999908
H    21.53000069  36.93999863  52.81999969
H    20.50000000  37.79000092  56.97999954
H    12.28999996  37.27000046  57.04000092
H    22.98999977  38.29000092  54.20999908
H    22.43000031  38.87000275  55.81999969
S    11.46000004  35.45999908  52.61000061
C     8.78999996  35.47000122  53.43999863
C    10.10000038  35.82999802  53.68999863
C    10.47000027  36.47999954  54.91000366
C     9.48000050  36.65999985  55.84999847
C     8.13000011  36.27999878  55.68000031
C     7.09000015  36.36000061  56.65999985
C     5.84000015  35.88000107  56.31999969
C     5.51000023  35.36000061  55.04000092
C     6.48000002  35.25000000  54.08000183
C     7.79999971  35.65999985  54.43000031
C    11.92000008  36.51000214  55.02999878
C    12.56999969  35.91999817  53.92000198
C    13.96000004  35.84000015  53.85000229
C     4.09999990  34.93999863  54.66999817
H     3.72853327  35.53291702  53.83419800
H     8.52999973  35.00000000  52.50000000
H     9.76000023  37.06000137  56.81999969
H     7.27999973  36.65999985  57.68000031
H     5.07999992  35.79999924  57.08000183
H     6.19999981  34.99000168  53.06000137
H    14.42999935  35.45000076  52.95000076
H     3.45000005  35.09999847  55.54000092
H     4.13000011  33.86000061  54.47999954
S    15.57000065  37.65000153  51.63000107
C    18.25000000  37.80999756  50.90999985
C    16.98999977  37.36000061  50.59999847
C    16.61000061  36.77000046  49.34999847
C    17.60000038  36.70000076  48.37999725
C    18.93000031  37.04000092  48.68999863
C    19.97999954  36.97000122  47.72999573
C    21.28000069  37.27000046  48.09000015
C    21.63000107  37.70999908  49.38999939
C    20.59999847  38.06000137  50.24000168
C    19.27999878  37.61000061  49.95999908
C    15.18000031  36.55999756  49.25000000
C    14.47000027  37.13999939  50.33000183
C    13.07999992  37.23999786  50.41999817
C    23.03999901  38.09999847  49.75000000
H    23.61011696  37.29470825  50.21322250
H    18.45999908  38.31000137  51.86000061
H    17.34000015  36.29000092  47.39999771
H    19.81999969  36.54000092  46.75000000
H    22.11000061  36.93000031  47.48000336
H    20.75000000  38.61000061  51.17000198
H    12.69000053  37.61000061  51.36000061
H    23.54000092  38.44000244  48.82999802
H    22.93999863  38.97999954  50.40000153
S    11.87999916  35.79999924  46.95000076
C     9.19999981  35.54000092  47.68000031
C    10.46000004  35.97999954  48.00000000
C    10.84000015  36.45999908  49.29999924
C     9.77000046  36.77999878  50.11000061
C     8.42000008  36.55999756  49.72999954
C     7.30000019  36.90000153  50.54000092
C     6.01000023  36.56999969  50.15999603
C     5.71000004  35.79999924  49.01000214
C     6.76000023  35.50000000  48.18000031
C     8.10000038  35.84000015  48.53000259
C    12.27000046  36.70000076  49.40999985
C    12.97000027  36.19999695  48.29000092
C    14.35999966  36.18999863  48.16999817
C     4.26000023  35.43000031  48.75000000
H     3.78583932  36.04570389  47.98568344
H     8.93000031  35.04000092  46.76000214
H    10.06000042  37.38999939  50.96000290
H     7.50999975  37.34999847  51.50000000
H     5.19000006  36.88000107  50.79000092
H     6.63999987  35.11000061  47.18000031
H    14.92000008  35.88999939  47.29000092
H     3.71000004  35.42000198  49.68999863
H     4.26999998  34.40999985  48.34999847
