96

S    14.82999992  37.27000046  57.50999832
C    17.56000137  37.49000168  56.76000214
C    16.28999901  37.02000046  56.52000046
C    15.95000076  36.41999817  55.27000046
C    16.97999954  36.18999863  54.36999893
C    18.31999969  36.56999969  54.62999725
C    19.37000084  36.40999985  53.68999863
C    20.66999817  36.70999908  54.02999878
C    20.96999931  37.40999985  55.22999573
C    19.96000099  37.65999985  56.11999893
C    18.63000107  37.21999741  55.87999725
C    14.52000046  36.22999954  55.11000061
C    13.76000023  36.77000046  56.18000031
C    12.38000011  36.81999969  56.22000122
C    22.36999893  37.78000259  55.66999817
H    22.86657524  37.04932785  56.30845261
H    17.82999992  37.97999954  57.69000244
H    16.61999893  35.75000000  53.43999863
H    19.12999916  36.02000046  52.70000076
H    21.52000046  36.58000183  53.36999893
H    20.12000084  38.18000031  57.06999969
H    11.92999935  37.29999924  57.09000015
H    22.88999939  37.93000031  54.72000122
H    22.32999992  38.75999832  56.14999771
S    11.32999992  35.20999908  52.76000214
C     8.64000034  34.84999847  53.53000259
C     9.85999966  35.45999908  53.70999908
C    10.26000023  36.17000198  54.88999939
C     9.22000027  36.37000275  55.77999878
C     7.88999987  35.96999741  55.47999954
C     6.90000010  36.19999695  56.46999741
C     5.58000040  35.86999893  56.25000000
C     5.21000004  35.18000031  55.06999969
C     6.15999985  34.81999969  54.13999939
C     7.53000021  35.13999939  54.36000061
C    11.69000053  36.27000046  55.13999939
C    12.43000031  35.81999969  54.01000214
C    13.81000042  35.73999786  54.00000000
C     3.82999992  34.59000015  54.87999725
H     3.35430145  35.14379883  54.07060242
H     8.56000042  34.29000092  52.60000229
H     9.40999985  36.70999908  56.79000092
H     7.13000011  36.76000214  57.36999893
H     4.80999994  36.15999985  56.97000122
H     5.89999962  34.43000031  53.15999985
H    14.35999966  35.29000092  53.18000031
H     3.24000001  34.70999908  55.79999924
H     3.97000027  33.52999878  54.62999725
S    15.48999977  37.56000137  51.70999908
C    18.12000084  37.86000061  50.86999893
C    16.87999916  37.31999969  50.63000107
C    16.47999954  36.88000107  49.33000183
C    17.45000076  36.72999954  48.36000061
C    18.78000069  37.16999817  48.59000397
C    19.78999901  37.04000092  47.60000229
C    21.02999878  37.59999847  47.80000305
C    21.42999840  38.20999908  49.02000046
C    20.42000008  38.29999924  49.95999908
C    19.10000038  37.79000092  49.84000397
C    15.03000069  36.84999847  49.20000076
C    14.34999943  37.15999985  50.40999985
C    12.96000004  37.22999954  50.47000122
C    22.79000092  38.81000137  49.31999969
H    23.39408684  38.12063217  49.90987015
H    18.38999939  38.29999924  51.83000183
H    17.26000023  36.44000244  47.32999802
H    19.52000046  36.44000244  46.72999954
H    21.67000008  37.54000092  46.93000031
H    20.58000183  38.82999802  50.90000153
H    12.44999981  37.45999908  51.38999939
H    23.23999786  39.09000015  48.36000061
H    22.69000053  39.75000000  49.86999893
S    11.77999973  36.38000107  46.76000214
C     9.15999985  35.89999771  47.58999634
C    10.44999981  36.22999954  47.91999817
C    10.78999996  36.60000229  49.26000214
C     9.73999977  36.75000000  50.14999771
C     8.38999939  36.54000092  49.80999756
C     7.31999969  36.63999939  50.75000000
C     6.05999994  36.24000168  50.38999939
C     5.75999975  35.77000046  49.09000015
C     6.74000025  35.79000092  48.11000061
C     8.07999992  36.09000015  48.47999954
C    12.22000027  36.81999969  49.34999847
C    12.89000034  36.60000229  48.11999893
C    14.27999973  36.58000183  48.04000092
C     4.38000011  35.22000122  48.81000137
H     3.91890383  35.76622009  47.98711777
H     8.84000015  35.54000092  46.60999680
H    10.10000038  37.00999832  51.14999771
H     7.62000036  36.91999817  51.76000214
H     5.33999968  35.97999954  51.17000198
H     6.44999981  35.36999893  47.15000153
H    14.81999969  36.25999832  47.15999985
H     3.77999997  35.36999893  49.72000122
H     4.51000023  34.13999939  48.67000198
