96

S    15.39999962  37.04000092  57.61000061
C    18.09000015  37.00999832  56.84000015
C    16.77000046  36.77000046  56.52000046
C    16.39000130  36.31999969  55.20999908
C    17.35000038  36.24000168  54.22999954
C    18.68000031  36.68999863  54.43000031
C    19.70999908  36.74000168  53.44999695
C    21.00000000  37.06000137  53.79000092
C    21.30000114  37.49000168  55.11000061
C    20.32999992  37.55000305  56.07999802
C    19.03000069  37.07999802  55.77999878
C    14.93000031  36.34999847  55.12000275
C    14.23999977  36.68000031  56.31000137
C    12.86000061  36.65999985  56.51000214
C    22.73999977  37.86000061  55.38999939
H    23.17378807  37.30532074  56.22201920
H    18.30999947  37.29000092  57.85999680
H    17.02000046  36.12999725  53.20000076
H    19.47999954  36.40000153  52.43999863
H    21.77999878  36.84999847  53.06000137
H    20.48000145  37.90000153  57.09999847
H    12.38000011  36.95000076  57.43999863
H    23.31999969  37.63000107  54.47999954
H    22.85000038  38.93000031  55.59999847
S    11.63000011  35.86000061  52.83000183
C     8.98999977  35.51000214  53.50000000
C    10.27999973  35.63000107  53.96999741
C    10.59999943  36.17000198  55.26000214
C     9.55000019  36.54000092  56.07999802
C     8.19000053  36.38999939  55.70000076
C     7.07000017  36.56999969  56.56000137
C     5.78999996  36.22999954  56.19999695
C     5.56999969  35.63000107  54.93000031
C     6.61999989  35.47999954  54.05000305
C     7.94000053  35.89999771  54.36999893
C    12.02999973  36.31000137  55.43000031
C    12.71000004  36.04000092  54.22000122
C    14.09000015  35.93000031  54.09000015
C     4.18000031  35.16999817  54.54999924
H     3.78182745  35.64638519  53.65411377
H     8.80999947  35.06999969  52.51999664
H     9.72999954  36.95000076  57.06999969
H     7.22000027  36.93999863  57.57999802
H     4.94999981  36.47000122  56.84000015
H     6.51999998  34.88999939  53.13999939
H    14.60000038  35.75999832  53.13999939
H     3.58999991  35.26000214  55.47000122
H     4.41000032  34.10000229  54.47999954
S    15.50000000  37.37999725  51.44000244
C    18.19000053  37.72999954  50.65999985
C    16.90999985  37.33000183  50.34999847
C    16.50000000  36.86999893  49.06000137
C    17.51000023  36.72000122  48.13000107
C    18.86000061  37.02999878  48.43000031
C    19.97999954  36.97000122  47.56000137
C    21.28999901  37.25000000  47.81999969
C    21.60000038  37.86999893  49.06999969
C    20.56999969  37.95000076  49.98000336
C    19.23999977  37.55000305  49.72000122
C    15.06000042  36.70000076  48.93000031
C    14.37000084  37.11000061  50.10000229
C    12.98999977  37.27999878  50.17000198
C    22.95999908  38.34999847  49.51000214
H    23.65489960  37.64801025  49.97090149
H    18.38000107  38.20000076  51.62000275
H    17.31999969  36.12999725  47.22999954
H    19.75000000  36.63000107  46.55000305
H    22.07999992  37.04000092  47.11000061
H    20.81999969  38.50000000  50.89000320
H    12.56999969  37.56999969  51.12999725
H    23.50000000  38.82999802  48.68000031
H    22.76000023  39.13000107  50.25000000
S    11.77000046  35.93000031  46.66999817
C     9.07999992  35.95999908  47.43000031
C    10.39000034  36.20999908  47.75000000
C    10.80000019  36.76000214  49.01000214
C     9.81999969  37.07999802  49.93000031
C     8.48999977  36.65999985  49.68999863
C     7.48000050  36.74000168  50.68999863
C     6.19000006  36.29000092  50.52000046
C     5.78000021  35.82999802  49.23999786
C     6.74000025  35.65000153  48.27999878
C     8.07999992  36.11999893  48.43000031
C    12.23999977  36.97000122  49.02999878
C    12.93000031  36.58000183  47.84999847
C    14.30999947  36.45000076  47.77999878
C     4.34999990  35.45999908  48.92000198
H     4.03867722  36.06849289  48.07093811
H     8.84000015  35.40999985  46.52000046
H    10.10000038  37.44999695  50.90999985
H     7.81000042  37.29999924  51.56000137
H     5.46999979  36.63999939  51.25000000
H     6.39999962  35.20999908  47.35000229
H    14.88999939  36.11999893  46.90999985
H     3.70000005  35.77000046  49.75000000
H     4.26000023  34.36999893  48.83999634
