96

S    15.05000019  37.37999725  57.43999863
C    17.73999977  37.52999878  56.63000107
C    16.45000076  37.09999847  56.38999939
C    16.01000023  36.54000092  55.14999771
C    17.05000114  36.32999802  54.25000000
C    18.38999939  36.72999954  54.43999863
C    19.47999954  36.53000259  53.54999924
C    20.78000069  36.88000107  53.86000061
C    21.11000061  37.47000122  55.11000061
C    20.10000038  37.69000244  56.02000427
C    18.76000023  37.40999985  55.65000153
C    14.56999969  36.45999908  54.99000168
C    13.90999985  36.86999893  56.18000031
C    12.53000069  36.97999954  56.20999908
C    22.56000137  37.75000000  55.44000244
H    22.87291145  37.32330322  56.39295578
H    17.97999954  37.97000122  57.58999634
H    16.80999947  35.88999939  53.29000092
H    19.34999847  36.05999756  52.57999802
H    21.45000076  36.88000107  53.01000214
H    20.23999977  38.01000214  57.04999924
H    11.96000004  37.27000046  57.08000183
H    23.15999985  37.26000214  54.65999985
H    22.77000046  38.81999969  55.40000153
S    11.30000019  35.72000122  52.63000107
C     8.57999992  35.58000183  53.39000320
C     9.89999962  35.82999802  53.69999695
C    10.32999992  36.34999847  54.95999908
C     9.31999969  36.59000015  55.86999893
C     7.95000029  36.34999847  55.63000107
C     6.84000015  36.51000214  56.51000214
C     5.51000023  36.31999969  56.20999908
C     5.18000031  35.70999908  54.95999908
C     6.19999981  35.52999878  54.06000137
C     7.57000017  35.79000092  54.36000061
C    11.76000023  36.55999756  55.12000275
C    12.43000031  36.15000153  53.93000031
C    13.81000042  36.05999756  53.88000107
C     3.75999975  35.31999969  54.61000061
H     3.35970902  35.84895325  53.74508667
H     8.32999992  35.29000092  52.36999893
H     9.51000023  36.79000092  56.91999817
H     7.07999992  36.77999878  57.52999878
H     4.76999998  36.41999817  57.00000000
H     5.98999977  34.97000122  53.15000153
H    14.32999992  35.75999832  52.97000122
H     3.17000008  35.45999908  55.52000046
H     3.78999996  34.25000000  54.36999893
S    11.77999973  33.87000275  49.68000031
C     9.15000057  33.27999878  50.34999847
C    10.48999977  33.09999847  50.63000107
C    10.86999989  32.37999725  51.81000137
C     9.94000053  31.91999817  52.71999741
C     8.56999969  32.02000046  52.37999725
C     7.55000019  31.47999954  53.20000076
C     6.24000025  31.86000061  53.00000000
C     5.80999947  32.50999832  51.81000137
C     6.77999973  32.86000061  50.90000153
C     8.15999985  32.75000000  51.20999908
C    12.28999996  32.61000061  52.01000214
C    12.89999962  33.31999969  50.93999863
C    14.25000000  33.65999985  50.90999985
C     4.36999989  32.86999893  51.58000183
H     3.92758250  32.21350861  50.83074570
H     8.75000000  33.80000305  49.47999954
H    10.25000000  31.38999939  53.61999893
H     7.85000038  30.94000053  54.09999847
H     5.46999979  31.44000053  53.64999771
H     6.48999977  33.36000061  49.97000122
H    14.78000069  34.11999893  50.07999802
H     3.91999984  32.88000107  52.58999634
H     4.35999966  33.90999985  51.22000122
S    15.52999973  32.02999878  54.33000183
C    18.20999908  32.57999802  53.74000168
C    16.87999916  32.69000244  53.40000153
C    16.38000107  33.40999985  52.27000427
C    17.35999870  33.88000107  51.40999603
C    18.73999977  33.70999908  51.63999939
C    19.71999931  34.20000076  50.72999954
C    21.07000160  34.11000061  50.97999954
C    21.51000023  33.31999969  52.08000183
C    20.59000015  32.79999924  52.95999908
C    19.19999886  33.06999969  52.84999847
C    14.93999958  33.29999924  52.06999969
C    14.34000015  32.61000061  53.15000153
C    13.02000046  32.15999985  53.11999893
C    22.96999931  32.92000198  52.15999985
H    23.35582924  33.27010345  53.11742401
H    18.45000076  31.91999817  54.56999969
H    17.02000046  34.26000214  50.45000076
H    19.34999847  34.66999817  49.81999969
H    21.75000000  34.41999817  50.20000076
H    20.96999931  32.15999985  53.75000000
H    12.57999992  31.65999985  53.96999741
H    23.44000053  33.44000244  51.31000137
H    23.05000114  31.84000015  52.00000000
