96

S    15.00000000  37.43999863  57.35000229
C    17.71000099  37.33000183  56.70000076
C    16.39999962  37.09999847  56.31999969
C    16.10999870  36.56999969  55.02999878
C    17.13000107  36.40999985  54.10999680
C    18.46999931  36.72999954  54.45000076
C    19.57999992  36.51000214  53.59000397
C    20.86000061  36.65999985  54.06999969
C    21.11000061  37.19000244  55.35999680
C    20.07999802  37.61000061  56.18000031
C    18.77000046  37.21999741  55.77000046
C    14.67000008  36.50000000  54.85000229
C    13.96000004  36.97000122  55.98999786
C    12.56999969  36.97000122  56.04000092
C    22.52000046  37.55000305  55.77999878
H    22.98233986  36.88849640  56.51263428
H    17.98999977  37.72999954  57.67000198
H    16.90000153  35.96999741  53.15000153
H    19.51000023  36.17000198  52.56000137
H    21.75000000  36.47999954  53.47000122
H    20.28000069  38.06000137  57.14000320
H    12.10999966  37.34999847  56.95000076
H    23.15000153  37.59999847  54.88999939
H    22.52000046  38.58000183  56.12999725
S    11.40999985  35.81000137  52.43999863
C     8.67000008  35.84000015  53.15000153
C     9.96999931  36.18999863  53.40999985
C    10.36000061  36.63000107  54.72000122
C     9.42000008  36.98999786  55.66999817
C     8.05999947  36.72000122  55.38999939
C     7.11999989  36.72999954  56.45000076
C     5.86000013  36.19999695  56.25000000
C     5.45000029  35.66999817  55.00000000
C     6.38999987  35.52999878  53.99000168
C     7.69999981  36.05999756  54.15999985
C    11.78999996  36.54999924  54.95999908
C    12.50000000  36.15000153  53.79000092
C    13.89000034  36.11999893  53.75000000
C     4.03999996  35.15999985  54.80999756
H     3.55646324  35.67198181  53.97803116
H     8.40999985  35.42000198  52.18000031
H     9.61000061  37.09999847  56.72999954
H     7.26999998  37.09000015  57.47000122
H     5.13999987  36.18999863  57.05999756
H     6.15999985  34.90000153  53.13000107
H    14.28999996  35.94000244  52.76000214
H     3.45000005  35.29000092  55.72000122
H     4.01999998  34.09000015  54.56999969
S    12.03999996  33.81000137  49.68999863
C     9.39000034  33.25000000  50.38999939
C    10.73999977  33.09000015  50.65000153
C    11.21999931  32.37999725  51.79000092
C    10.26999950  31.84999847  52.63999939
C     8.88000011  32.02999878  52.44999695
C     7.90000010  31.47999954  53.33000183
C     6.54999971  31.59000015  53.11000061
C     6.11000013  32.31999969  51.97999954
C     7.00999975  32.77000046  51.04999924
C     8.42000008  32.66999817  51.24000168
C    12.64999962  32.59000015  51.97000122
C    13.25000000  33.27000046  50.86999893
C    14.59000015  33.63999939  50.84999847
C     4.67000008  32.78000259  51.88999939
H     4.22644949  32.44375992  50.95281982
H     8.89000034  33.75000000  49.56999969
H    10.59000015  31.25999832  53.50000000
H     8.10999966  30.86999893  54.20000076
H     5.88999987  31.18000031  53.87000275
H     6.65999985  33.27000046  50.13999939
H    15.14000034  34.13000107  50.05000305
H     4.18000031  32.42000198  52.81000137
H     4.74000025  33.87000275  51.88000107
S    15.88000107  32.26000214  54.34000015
C    18.55999947  32.59000015  53.59000397
C    17.22999954  32.86999893  53.36000061
C    16.77999878  33.45999908  52.14000320
C    17.71999931  33.81999969  51.18999863
C    19.11000061  33.77000046  51.45999908
C    20.07999802  34.38000107  50.61999893
C    21.40999985  34.10000229  50.81999969
C    21.81999969  33.40999985  51.97999954
C    20.89999962  32.90000153  52.87000275
C    19.50000000  33.04000092  52.63999939
C    15.34999943  33.27000046  51.95999908
C    14.73999977  32.54000092  53.01000214
C    13.40000057  32.14999771  53.06000137
C    23.29999924  33.09000015  52.09000015
H    23.68348694  33.50899506  53.02031326
H    18.67000008  32.00999832  54.50000000
H    17.36999893  34.15999985  50.21999741
H    19.78999901  34.80999756  49.65999985
H    22.13999939  34.50999832  50.12000275
H    21.30000114  32.45999908  53.77999878
H    13.05999947  31.67000008  53.96999741
H    23.78999901  33.45000076  51.18000031
H    23.42000008  32.00999832  52.22000122
