96

S    14.86999989  37.56000137  57.29000092
C    17.57999992  37.56000137  56.63999939
C    16.28999901  37.25000000  56.27999878
C    15.95999908  36.63000107  55.02999878
C    16.98999977  36.53000259  54.10999680
C    18.34000015  36.76000214  54.43000031
C    19.45999908  36.65999985  53.55999756
C    20.71000099  37.09999847  53.89999771
C    20.97999954  37.63999939  55.19000244
C    19.93999863  37.79000092  56.06999969
C    18.63999939  37.30999756  55.72999954
C    14.53999996  36.31999969  54.97000122
C    13.82999992  36.70999908  56.12999725
C    12.44999981  36.88000107  56.17000198
C    22.39000130  38.06999969  55.54000092
H    22.86637497  37.38032150  56.23678970
H    17.76000023  37.99000168  57.62000275
H    16.72000122  36.43000031  53.06000137
H    19.23999977  36.45000076  52.50999832
H    21.51000023  37.06999969  53.16999817
H    20.07999802  38.41999817  56.93999863
H    11.97000027  37.20999908  57.09000015
H    23.03999901  38.09000015  54.65000153
H    22.43999863  39.11999893  55.84999847
S    11.30000019  35.79000092  52.54000092
C     8.60999966  35.70000076  53.18000031
C     9.88000011  36.05999756  53.56999969
C    10.22999954  36.60000229  54.85000229
C     9.19999981  36.70999908  55.76000214
C     7.90000010  36.24000168  55.47000122
C     6.81999969  36.32999802  56.38999939
C     5.53999996  35.90999985  56.11999893
C     5.25000000  35.38000107  54.82999802
C     6.25000000  35.35000229  53.88000107
C     7.59000015  35.72000122  54.15999985
C    11.68000031  36.63999939  55.02999878
C    12.38000011  36.17000198  53.88999939
C    13.73999977  35.89999771  53.89999771
C     3.84000015  35.02999878  54.43000031
H     3.29359198  35.76090622  53.83391953
H     8.30999947  35.51000214  52.15000153
H     9.38000011  36.97000122  56.79999924
H     7.07999992  36.86000061  57.30999756
H     4.78999996  35.96999741  56.88999939
H     6.05999994  35.09999847  52.84000015
H    14.15999985  35.59999847  52.94000244
H     3.25999999  34.69000244  55.30000305
H     3.89999986  34.11000061  53.83999634
S    11.80999947  33.75000000  49.79000092
C     9.13999939  33.04000092  50.28999710
C    10.46000004  33.00000000  50.65999985
C    10.90000057  32.40999985  51.88999939
C     9.94000053  31.80000114  52.69000244
C     8.56999969  31.97999954  52.41000366
C     7.53999996  31.54999924  53.29999924
C     6.21000004  31.68000031  52.98999786
C     5.80999947  32.30999756  51.77999878
C     6.75000000  32.69000244  50.84999847
C     8.13000011  32.56999969  51.17000198
C    12.32999992  32.59999847  52.06999969
C    13.00000000  33.27000046  51.02000427
C    14.32000065  33.70999908  51.04000092
C     4.33999968  32.63999939  51.65999985
H     3.86456466  32.22133255  50.77299500
H     8.82000065  33.63999939  49.43999863
H    10.27999973  31.35000038  53.61000061
H     7.85000038  31.04999924  54.22000122
H     5.53999996  31.38000107  53.79000092
H     6.40999985  33.25999832  49.99000168
H    14.63999939  34.38000107  50.24000168
H     3.81000018  32.38999939  52.57999802
H     4.26999998  33.72999954  51.53999710
S    15.62999916  32.02000046  54.40000153
C    18.26000023  32.54000092  53.86000061
C    16.95999908  32.72999954  53.46000290
C    16.54999924  33.39999771  52.27000427
C    17.48999977  33.95000076  51.42000198
C    18.86000061  33.77000046  51.70000076
C    19.85000038  34.36999893  50.87999725
C    21.18999863  34.25000000  51.18000031
C    21.51000023  33.46999741  52.31999969
C    20.56999969  32.92000198  53.16999817
C    19.18000031  33.11000061  52.94000244
C    15.11000061  33.23999786  52.09000015
C    14.50000000  32.47999954  53.11999893
C    13.14000034  32.18000031  53.13000107
C    22.95000076  33.02999878  52.43000031
H    23.52031136  33.65021515  53.12150574
H    18.59000015  32.07999802  54.79000092
H    17.26000023  34.41999817  50.45999908
H    19.55999947  34.86000061  49.94999695
H    21.93000031  34.43000031  50.40000153
H    20.94000053  32.31999969  54.00000000
H    12.61999989  31.63000107  53.90999603
H    23.36999893  33.01000214  51.42000198
H    22.95000076  31.98999786  52.77999878
