96

S    15.18000031  37.40999985  57.23999786
C    17.90999985  37.45999908  56.53999710
C    16.61000061  37.15999985  56.20999908
C    16.18999863  36.52000046  55.00000000
C    17.19000053  36.12999725  54.13000107
C    18.53999901  36.48999786  54.36000061
C    19.62000084  36.22000122  53.46000290
C    20.92000008  36.52000046  53.80000305
C    21.25999832  37.13000107  55.02999878
C    20.27000046  37.34000015  55.97000122
C    18.90999985  37.09999847  55.61000061
C    14.73999977  36.50000000  54.85000229
C    14.01999950  36.93999863  55.98999786
C    12.64000034  37.09999847  56.09000397
C    22.65000153  37.65999985  55.30000305
H    23.19292641  37.14564896  56.09295654
H    18.15999985  37.84000015  57.51999664
H    16.92000008  35.54999924  53.25000000
H    19.40999985  35.84999847  52.45999908
H    21.73999977  36.45999908  53.09000015
H    20.36000061  37.95999908  56.86000061
H    12.17000008  37.50000000  56.98999786
H    23.23999786  37.47000122  54.40000153
H    22.52000046  38.70999908  55.61999893
S    11.39999962  35.72000122  52.64999771
C     8.71999931  35.98999786  53.20000076
C    10.01000023  36.22000122  53.61999893
C    10.39000034  36.74000168  54.89999771
C     9.38000011  36.97999954  55.80999756
C     8.03999996  36.72999954  55.45000076
C     6.98000002  36.72000122  56.40999603
C     5.71000004  36.30000305  56.09000397
C     5.38000011  35.84999847  54.79000092
C     6.38000011  35.75000000  53.85000229
C     7.69999981  36.18000031  54.16999817
C    11.84000015  36.74000168  55.00000000
C    12.56000042  36.18999863  53.90999603
C    13.94000053  36.09000015  53.77999878
C     3.98000002  35.33000183  54.51000214
H     3.42549729  35.77786636  53.68535614
H     8.56999969  35.45999908  52.25999832
H     9.61000061  37.29000092  56.83000183
H     7.11000013  37.02000046  57.44999695
H     4.86999989  36.27999878  56.77999878
H     6.15999985  35.33000183  52.87000275
H    14.39000034  35.58000183  52.93000031
H     3.49000001  35.52999878  55.47000122
H     4.02999973  34.24000168  54.51000214
S    11.72000027  33.59000015  49.86000061
C     9.04999924  33.27000046  50.70000076
C    10.39000034  33.02999878  50.90000153
C    10.86999989  32.31999969  52.04000092
C     9.94000053  31.76000214  52.88999939
C     8.53999996  31.94999886  52.72999573
C     7.59000015  31.32999802  53.57999802
C     6.25000000  31.44000053  53.29000092
C     5.79999971  32.26000214  52.22000122
C     6.71000004  32.90999985  51.40999603
C     8.10999966  32.77000046  51.63000107
C    12.30999947  32.37999725  52.22999954
C    12.84999943  33.13000107  51.14999771
C    14.14999962  33.61000061  51.18000031
C     4.33999968  32.34000015  51.84999847
H     4.03408432  31.99851418  50.86111069
H     8.65999985  33.81000137  49.84000397
H    10.34000015  31.25999832  53.76999664
H     8.01000023  30.72000122  54.38000107
H     5.59999990  31.04000092  54.06999969
H     6.39999962  33.45000076  50.52000046
H    14.52999973  34.04000092  50.26000214
H     3.71000004  31.86000061  52.62000275
H     4.07000017  33.39999771  52.01000214
S    15.67999935  31.73000145  54.40000153
C    18.26000023  32.34000015  53.68000031
C    16.92000008  32.56999969  53.44999695
C    16.42000008  33.20999908  52.25999832
C    17.36999893  33.67000198  51.37000275
C    18.76000023  33.67000198  51.63999939
C    19.70999908  34.11999893  50.68000031
C    21.04000092  33.87000275  50.93000031
C    21.50000000  33.13000107  52.04999924
C    20.59000015  32.73999786  53.01000214
C    19.19000053  32.95999908  52.81999969
C    14.96999931  33.15999985  52.22000122
C    14.47000027  32.31999969  53.25000000
C    13.15000057  31.87000084  53.22999954
C    22.98000145  32.85000229  52.18999863
H    23.37215614  33.15659714  53.15969849
H    18.61999893  31.61000061  54.40000153
H    17.06999969  34.08000183  50.40999985
H    19.30999947  34.59000015  49.79000092
H    21.76000214  34.18000031  50.17000198
H    20.90999985  32.04999924  53.77999878
H    12.68000031  31.21000099  53.95000076
H    23.39999962  33.45000076  51.37000275
H    23.09000015  31.76000214  52.09999847
