96

S    15.01000023  36.97000122  57.61000061
C    17.69000053  37.11999893  56.91999817
C    16.43000031  36.70000076  56.59000015
C    16.03000069  36.34000015  55.25000000
C    17.00000000  36.30000305  54.27000046
C    18.31999969  36.72000122  54.59999847
C    19.34000015  36.51000214  53.62999725
C    20.66999817  36.67000198  53.96999741
C    21.04999924  37.20999908  55.21999741
C    20.06000137  37.42000198  56.14999771
C    18.71999931  36.98999786  55.94999695
C    14.59000015  36.17000198  55.12000275
C    13.89999962  36.58000183  56.27999878
C    12.51999950  36.72999954  56.25000000
C    22.43999863  37.62000275  55.66999817
H    22.95801926  36.91748047  56.32284927
H    17.95999908  37.59999847  57.85999680
H    16.67000008  35.88999939  53.33000183
H    19.12999916  36.15999985  52.63000107
H    21.42000008  36.45999908  53.22000122
H    20.17999840  38.06000137  57.02000046
H    11.90999985  37.09000015  57.08000183
H    22.98999977  37.79999924  54.73999786
H    22.43999863  38.56999969  56.19999695
S    11.47999954  35.75000000  52.50000000
C     8.71999931  35.75999832  53.18000031
C    10.03999901  35.93000031  53.52000427
C    10.39000034  36.31000137  54.86000061
C     9.40999985  36.38000107  55.83000183
C     8.05000019  36.15000153  55.51000214
C     7.04999971  36.25000000  56.52999878
C     5.75000000  35.97999954  56.18000031
C     5.32999992  35.68999863  54.86000061
C     6.32999992  35.52999878  53.92000198
C     7.69999981  35.82999802  54.15999985
C    11.82000065  36.47999954  55.06000137
C    12.53000069  36.17000198  53.87000275
C    13.90999985  36.00000000  53.90999603
C     3.94000006  35.19000244  54.54999924
H     3.34424734  35.84249115  53.91169357
H     8.51000023  35.36999893  52.18000031
H     9.65999985  36.61000061  56.86999893
H     7.36999989  36.50000000  57.52999878
H     5.07999992  35.81000137  57.02999878
H     6.05000019  35.11000061  52.95999908
H    14.44000053  35.77999878  52.98999786
H     3.40999985  35.05000305  55.48999786
H     3.95000005  34.25000000  53.97999573
S    11.38000011  33.75000000  49.61999893
C     8.76999950  33.50000000  50.40000153
C    10.06000042  33.08000183  50.59999847
C    10.52000046  32.43000031  51.79000092
C     9.59999943  32.02000046  52.74000168
C     8.23000050  32.31999969  52.52999878
C     7.26999998  31.73000145  53.40000153
C     5.92999983  31.90999985  53.18000031
C     5.52999973  32.65000153  52.04000092
C     6.43000031  33.09999847  51.10000229
C     7.82999992  32.99000168  51.32999802
C    11.97000027  32.47000122  51.90000153
C    12.55000019  33.22000122  50.84000015
C    13.90999985  33.45999908  50.70999908
C     4.07000017  32.88000107  51.72000122
H     3.65125322  32.44705963  50.81153488
H     8.60000038  34.04000092  49.47000122
H     9.92000008  31.34000015  53.53000259
H     7.50999975  31.18000031  54.31000137
H     5.23999977  31.71999931  54.00000000
H     6.15999985  33.45000076  50.11000061
H    14.27000046  34.09000015  49.89999771
H     3.45000005  32.72000122  52.61000061
H     3.98000002  33.97000122  51.68000031
S    15.29999924  31.97999954  54.13999939
C    17.97000122  32.50999832  53.47000122
C    16.62999916  32.66999817  53.20000076
C    16.13000107  33.34999847  52.04999924
C    17.05999947  33.95999908  51.23000336
C    18.45000076  33.84999847  51.47999573
C    19.44000053  34.31999969  50.56999969
C    20.79000092  34.11000061  50.77999878
C    21.21999931  33.27000046  51.84000015
C    20.30999947  32.73999786  52.71999741
C    18.92000008  33.02000046  52.56000137
C    14.73000050  33.06000137  51.77000046
C    14.14999962  32.31999969  52.83000183
C    12.81999969  31.90999985  52.84999847
C    22.70999908  33.06999969  51.98999786
H    23.14463043  33.20537567  52.98038483
H    18.27000046  31.84000015  54.27999878
H    16.79000092  34.40000153  50.27000046
H    19.09000015  34.70000076  49.61999893
H    21.54999924  34.34999847  50.05000305
H    20.52999878  32.19000244  53.63999939
H    12.48999977  31.34000015  53.70999908
H    23.22999954  33.77999878  51.32999802
H    22.90999985  32.02999878  51.70000076
