96

S    15.07999992  37.14999771  57.36000061
C    17.78000069  37.36000061  56.72000122
C    16.53000069  36.93000031  56.36000061
C    16.18999863  36.27999878  55.13000107
C    17.22999954  36.06999969  54.23999786
C    18.56999969  36.36000061  54.59999847
C    19.60000038  36.25000000  53.61999893
C    20.89999962  36.45999908  54.02999878
C    21.22999954  37.04999924  55.27999878
C    20.19000053  37.40000153  56.11999893
C    18.84000015  37.06999969  55.81999969
C    14.75000000  36.25000000  54.94999695
C    13.97999954  36.61000061  56.07999802
C    12.58999920  36.61000061  56.13999939
C    22.67000008  37.34000015  55.63000107
H    23.06273842  36.84015274  56.51544189
H    17.97000122  37.62000275  57.76000214
H    17.02999878  35.81999969  53.20000076
H    19.37999916  35.81000137  52.64999771
H    21.70999908  36.09000015  53.40999985
H    20.38000107  37.93000031  57.04999924
H    12.15000057  36.88999939  57.09999847
H    23.15999985  37.20000076  54.65999985
H    22.67999840  38.41999817  55.84999847
S    11.51999950  35.13000107  52.65999603
C     8.84000015  35.09999847  53.25000000
C    10.10000038  35.47999954  53.66000366
C    10.39000034  36.15000153  54.88999939
C     9.31999969  36.47000122  55.70000076
C     7.99000025  36.09999847  55.35999680
C     6.90999985  36.40000153  56.23000336
C     5.63000011  36.04000092  55.86999893
C     5.44000053  35.27000046  54.68999863
C     6.44999981  34.97999954  53.80000305
C     7.75000000  35.45999908  54.09999847
C    11.84000015  36.22000122  55.01999664
C    12.61000061  35.72999954  53.94000244
C    14.00000000  35.73999786  53.88000107
C     4.05999994  34.79999924  54.29000092
H     3.52683592  35.49666595  53.64309311
H     8.67000008  34.50999832  52.36000061
H     9.70000076  37.07999802  56.51000214
H     7.18999958  36.81999969  57.18999863
H     4.76999998  36.47999954  56.36000061
H     6.24000025  34.56000137  52.81999969
H    14.46000004  35.28000259  53.02000046
H     3.45999980  34.54999924  55.17000198
H     4.17000008  33.82999802  53.79000092
S    15.38000011  37.31999969  51.59000015
C    18.12000084  37.18000031  50.93000031
C    16.80999947  36.91999817  50.61999893
C    16.43000031  36.45999908  49.31000137
C    17.40999985  36.25999832  48.34999847
C    18.75000000  36.59000015  48.66000366
C    19.78000069  36.68999863  47.67000198
C    21.09999847  36.97000122  47.93000031
C    21.45000076  37.38999939  49.23999786
C    20.48000145  37.47999954  50.21999741
C    19.14999962  37.06000137  49.95999908
C    14.98000050  36.37000275  49.20999908
C    14.23999977  36.77000046  50.34999847
C    12.86000061  36.95999908  50.37000275
C    22.86999893  37.81999969  49.52999878
H    23.36932182  37.15661621  50.23618317
H    18.50000000  37.59999847  51.84999847
H    17.20000076  36.02999878  47.30999756
H    19.63999939  36.63999939  46.59999847
H    21.90000153  36.90999985  47.19999695
H    20.78000069  37.75000000  51.23000336
H    12.41000080  37.50000000  51.19999695
H    23.36999893  37.86000061  48.54999924
H    22.88999939  38.82999802  49.95999908
S    11.76000023  35.54000092  46.83000183
C     9.04999924  35.79000092  47.41000366
C    10.34999943  35.98999786  47.81000137
C    10.67999935  36.51000214  49.09999847
C     9.67000008  36.84999847  49.98000336
C     8.32999992  36.52000046  49.65999985
C     7.30999994  36.65999985  50.63999939
C     6.05999994  36.11000061  50.45999908
C     5.75999975  35.52000046  49.20999908
C     6.67999983  35.52999878  48.18000031
C     8.01999950  35.97999954  48.36000061
C    12.13000107  36.59000015  49.23999786
C    12.84000015  36.05999756  48.13999939
C    14.22999954  35.98999786  48.09000015
C     4.33999968  35.04000092  49.01000214
H     3.74845266  35.78834152  48.48259735
H     8.80000019  35.22999954  46.51000214
H     9.82999992  37.09000015  51.03000259
H     7.50999975  37.06999969  51.63000107
H     5.38000011  36.45000076  51.24000168
H     6.34000015  35.20000076  47.21000290
H    14.75000000  35.65000153  47.19999695
H     3.88999987  34.71999741  49.94999695
H     4.48000002  34.13999939  48.37999725
