96

S    15.10000038  37.69000244  57.15000153
C    17.79000092  37.57999802  56.45999908
C    16.50000000  37.16999817  56.19999695
C    16.13000107  36.48999786  55.00000000
C    17.18000031  36.17000198  54.15999985
C    18.53999901  36.52000046  54.38000107
C    19.51000023  36.32999802  53.36000061
C    20.76000023  36.86999893  53.50999832
C    21.07999992  37.56000137  54.71000290
C    20.13999939  37.86999893  55.65999985
C    18.84000015  37.30999756  55.54000092
C    14.68999958  36.48999786  54.79999924
C    14.00000000  37.13000107  55.86999893
C    12.61999989  37.31999969  55.86999893
C    22.50999832  37.93999863  55.02999878
H    22.87267494  37.63421249  56.01135635
H    17.98999977  38.22000122  57.30999756
H    16.92000008  35.65000153  53.23999786
H    19.22000122  35.88000107  52.41000366
H    21.55999947  36.79000092  52.77000046
H    20.28000069  38.47999954  56.55000305
H    12.13999939  37.70000076  56.77000046
H    23.11000061  37.47000122  54.23999786
H    22.65999985  39.02000046  54.91000366
S    11.50000000  35.88999939  52.30999756
C     8.78999996  35.88000107  53.09999847
C    10.10000038  36.22000122  53.34999847
C    10.44000053  36.86999893  54.58000183
C     9.44000053  37.13000107  55.50000000
C     8.10999966  36.70000076  55.27999878
C     7.03999996  36.84000015  56.20999908
C     5.73999977  36.54000092  55.89000320
C     5.45000029  35.88000107  54.66999817
C     6.40999985  35.72999954  53.69999695
C     7.73999977  36.11000061  54.02000046
C    11.87999916  37.02000046  54.72999954
C    12.56000042  36.41999817  53.63999939
C    13.92000008  36.13999939  53.68999863
C     4.02999973  35.47000122  54.34000015
H     3.56815958  36.02420807  53.52289581
H     8.55000019  35.33000183  52.19999695
H     9.84000015  37.52000046  56.43000031
H     7.22000027  37.27999878  57.18999863
H     4.90000010  36.88000107  56.50000000
H     6.14000034  35.25000000  52.76000214
H    14.42999935  35.61999893  52.88000107
H     3.49000001  35.59000015  55.28999710
H     4.18000031  34.41999817  54.09000015
S    12.22000027  34.04000092  49.51000214
C     9.56999969  33.46999741  50.27000046
C    10.92000008  33.25999832  50.43000031
C    11.40999985  32.65000153  51.63000107
C    10.54999924  32.13999939  52.58999634
C     9.15000057  32.18000031  52.35000229
C     8.19999981  31.63000107  53.25000000
C     6.85999966  31.78999901  52.98999786
C     6.35999966  32.42000198  51.81999969
C     7.26999998  33.08000183  51.03000259
C     8.67000008  32.90999985  51.19999695
C    12.84999943  32.72999954  51.79000092
C    13.38000107  33.54000092  50.76000214
C    14.68999958  33.97999954  50.80999756
C     4.86999989  32.56000137  51.63000107
H     4.47206402  32.19049072  50.68490601
H     9.21000004  34.17000198  49.51000214
H    10.93000031  31.61999893  53.46000290
H     8.52999973  31.18999863  54.19000244
H     6.11000013  31.42999840  53.68999863
H     6.85999966  33.63999939  50.19000244
H    15.06999969  34.45999908  49.91000366
H     4.46000004  31.91999817  52.43000031
H     4.48000002  33.56999969  51.84000015
S    16.18999863  32.21999741  54.05000305
C    18.89999962  32.65000153  53.23999786
C    17.53999901  32.72000122  53.02000046
C    16.97999954  33.18999863  51.79000092
C    17.90999985  33.69999695  50.90999985
C    19.30999947  33.48999786  51.00999832
C    20.19000053  34.31999969  50.27000046
C    21.51000023  34.45999908  50.63000107
C    22.04999924  33.90999985  51.81999969
C    21.21000099  33.18000031  52.63999939
C    19.85000038  33.02000046  52.25999832
C    15.52999973  33.36000061  51.73999786
C    14.94999981  32.73999786  52.88000107
C    13.59000015  32.44999695  52.95000076
C    23.48999977  34.22000122  52.15999985
H    23.72453308  34.05653763  53.21184158
H    19.18000031  32.30999756  54.22999954
H    17.56999969  34.34000015  50.10000229
H    19.81999969  34.99000168  49.50000000
H    22.14999962  35.11000061  50.02999878
H    21.42000008  32.83000183  53.63999939
H    13.07999992  31.94999886  53.76999664
H    23.50000000  35.27000046  51.84999847
H    24.18999863  33.63999939  51.55000305
