96

S    17.46000099   2.11999989  59.93999863
C    20.20000076   2.13000011  59.41999817
C    18.92000008   1.84000003  58.99000168
C    18.63000107   1.42000008  57.64999771
C    19.69000053   1.22000003  56.77000046
C    21.01000023   1.56000006  57.14000320
C    22.09000015   1.46000004  56.20999908
C    23.39999962   1.66999996  56.58000183
C    23.61000061   2.17999983  57.88999939
C    22.60000038   2.26999998  58.82999802
C    21.25000000   1.95999992  58.50000000
C    17.21999931   1.10000002  57.50999832
C    16.44000053   1.58999991  58.59000397
C    15.05000019   1.72999990  58.60000229
C    25.00999832   2.63000011  58.23999786
H    25.39375496   2.16807222  59.14964294
H    20.43000031   2.42000008  60.45000076
H    19.55999947   0.99000001  55.72000122
H    21.91999817   1.14999998  55.18000031
H    24.18000031   1.62000000  55.84000015
H    22.78000069   2.71000004  59.79999924
H    14.55000019   2.03999996  59.51000214
H    25.76000023   2.30999994  57.50999832
H    25.00999832   3.72000003  58.16999817
S    14.02999973   0.19000000  55.12000275
C    11.28000069   0.29999998  55.68000031
C    12.57999992   0.56000000  56.06999969
C    12.86999893   1.19000006  57.31999969
C    11.79999924   1.52999997  58.13000107
C    10.44999981   1.25999999  57.81000137
C     9.35000038   1.51999998  58.68000031
C     8.09000015   1.15999997  58.26000214
C     7.83999968   0.48999998  57.02999878
C     8.89000034   0.24000001  56.17000198
C    10.19999981   0.64000005  56.52999878
C    14.32000065   1.25000000  57.50999832
C    15.08999920   0.69999999  56.45999908
C    16.46999931   0.61000001  56.44000244
C     6.43000031   0.16000001  56.62000275
H     5.99669123   1.01951432  56.10855484
H    11.06999969  -0.03000000  54.66999817
H    12.02999973   1.77999997  59.15999985
H     9.57999992   2.05999994  59.59000015
H     7.26000023   1.49000001  58.88000107
H     8.82999992  -0.28000000  55.20999908
H    16.94000053   0.32999998  55.50000000
H     5.82000017  -0.14999999  57.48000336
H     6.53999996  -0.75000000  56.02000427
S    17.86999893   2.32999992  53.50000000
C    20.56999969   2.69000006  52.97000122
C    19.32999992   2.37000012  52.49000168
C    18.94000053   1.94999993  51.17000198
C    20.00999832   1.80999994  50.31000137
C    21.32999802   2.16000009  50.66999817
C    22.37999916   2.09999990  49.71000290
C    23.64999962   2.30999994  50.18000031
C    23.95999908   2.82000017  51.46999741
C    22.93000031   2.99000001  52.36000061
C    21.61000061   2.56999993  52.02000046
C    17.51000023   1.80999994  50.90999985
C    16.81999969   2.21000004  52.08000183
C    15.43000031   2.24000001  52.15999985
C    25.36000061   3.21000004  51.91999817
H    25.74464798   2.54042721  52.68929672
H    20.73999786   3.21000004  53.90999603
H    19.78000069   1.52999997  49.27999878
H    22.13999939   1.84000003  48.68000031
H    24.53000069   1.98000002  49.64000320
H    23.15000153   3.38999987  53.34999847
H    14.92000008   2.22000003  53.11999893
H    26.00000000   3.07000017  51.04000092
H    25.40999985   4.23999977  52.29000092
S    14.25000000   1.54999995  48.44999695
C    11.54999924   1.16999996  49.18000031
C    12.84999943   1.49000001  49.52999878
C    13.30999947   1.80000007  50.84999847
C    12.32999992   1.87000012  51.81999969
C    10.97000027   1.70000005  51.49000168
C     9.96000004   1.79000008  52.49000168
C     8.69000053   1.33000004  52.25000000
C     8.36000061   0.71999997  51.00999832
C     9.23999977   0.74000001  49.95999908
C    10.55999947   1.21000004  50.20000076
C    14.73000050   2.07999992  50.96000290
C    15.43000031   1.75999999  49.75999832
C    16.79000092   1.50999999  49.75000000
C     7.00999975   0.05000000  50.80999756
H     6.27078772   0.76788914  50.45460892
H    11.21000099   0.92000002  48.18000031
H    12.63000011   2.16999984  52.81999969
H    10.26000023   2.17999983  53.46000290
H     7.97999954   1.69000006  52.98999786
H     8.93000031   0.39999998  48.96999741
H    17.28000069   1.29999995  48.80000305
H     6.78999996  -0.28999999  51.83000183
H     7.05999947  -0.79000002  50.10000229
