96

S    16.75000000   1.67999995  60.05000305
C    19.47000122   1.65000010  59.43000031
C    18.20000076   1.22000003  59.12000275
C    17.92000008   0.61000001  57.85999680
C    18.94000053   0.43000001  56.95000076
C    20.26000023   0.83999997  57.25999832
C    21.28999901   0.88999999  56.26999664
C    22.55000114   1.34000003  56.59999847
C    22.84000015   1.82999992  57.88999939
C    21.84000015   1.94999993  58.82999802
C    20.53999901   1.44999993  58.53000259
C    16.48999977   0.59000003  57.58999634
C    15.76000023   1.00999999  58.73000336
C    14.37999916   1.03999996  58.68999863
C    24.26000214   2.25999999  58.18999863
H    24.81913376   1.50977087  58.74913025
H    19.61000061   2.29999995  60.28999710
H    18.63999939   0.17000002  55.93999863
H    21.04000092   0.44000000  55.31000137
H    23.29999924   1.33000004  55.81999969
H    22.01000023   2.47000003  59.77000427
H    13.85000038   1.43999994  59.55999756
H    24.79000092   2.49000001  57.25999832
H    24.27000046   3.14000010  58.83999634
S    13.30999947  -0.14000000  55.14999771
C    10.57000065  -0.12000000  55.73999786
C    11.85999966   0.14999999  56.12999725
C    12.22000027   0.67000002  57.41000366
C    11.25000000   0.82000005  58.37999725
C     9.90999985   0.46000001  58.09999847
C     8.82000065   0.54000002  59.02000046
C     7.53000021   0.29999998  58.62999725
C     7.20000029   0.03000000  57.27000427
C     8.23999977  -0.00000000  56.36000061
C     9.59999943   0.03000000  56.77000046
C    13.67000008   0.74000001  57.51999664
C    14.46000004   0.38000000  56.38999939
C    15.84000015   0.23000000  56.39999771
C     5.78999996  -0.35999998  56.90000153
H     5.33498430   0.32963309  56.18904114
H    10.31000042  -0.41999999  54.72999954
H    11.46999931   1.15999997  59.38000107
H     8.98999977   0.81000000  60.06000137
H     6.90000010   0.17000002  59.50000000
H     8.13000011  -0.39000002  55.34999847
H    16.50000000  -0.13000000  55.61999893
H     5.18000031  -0.41000003  57.81000137
H     5.88000011  -1.38000000  56.50000000
S    17.43999863   1.98000002  54.13999939
C    20.13000107   2.26999998  53.40999985
C    18.88000107   1.75000000  53.13999939
C    18.63000107   1.15999997  51.86000061
C    19.63000107   1.15999997  50.90000153
C    20.93000031   1.64000010  51.18999863
C    21.98999786   1.71000004  50.25000000
C    23.22999954   2.21000004  50.59000015
C    23.51000023   2.79999995  51.84999847
C    22.46999931   2.79000020  52.76000214
C    21.18000031   2.26999998  52.45999908
C    17.20000076   1.14999998  51.59000015
C    16.46000099   1.56000006  52.71999741
C    15.07999992   1.71000004  52.64999771
C    24.87999916   3.28000021  52.25999832
H    25.47230721   2.53783298  52.79521942
H    20.20999908   2.82999992  54.33000183
H    19.44000053   0.86000001  49.86999893
H    21.94999886   1.22000003  49.27000046
H    24.04000092   2.03999996  49.88999939
H    22.69000053   3.12999988  53.76999664
H    14.48999977   1.94000006  53.53000259
H    25.51000214   3.71000004  51.46999741
H    24.63000107   4.19000006  52.81999969
S    14.17000008   0.81000000  48.94000244
C    11.44000053   0.41000003  49.54000092
C    12.72999954   0.67000002  49.95999908
C    12.97999954   1.19999993  51.25999832
C    11.97000027   1.33000004  52.18999863
C    10.65000057   1.10000002  51.73999786
C     9.61000061   1.13000000  52.70999908
C     8.34000015   0.69000000  52.38999939
C     8.06999969   0.20999999  51.07999802
C     9.01000023   0.28000000  50.07999802
C    10.34000015   0.65999997  50.40000153
C    14.40999985   1.43999994  51.45000076
C    15.21999931   1.15999997  50.31999969
C    16.61000061   1.08000004  50.31999969
C     6.63000011  -0.11000000  50.73999786
H     6.28914356   0.34447527  49.80974579
H    11.23000050  -0.09000000  48.60000229
H    12.10000038   1.61000001  53.23999786
H     9.80000019   1.56000006  53.68000031
H     7.46999979   0.82999998  53.02000046
H     8.71000004  -0.17000002  49.13999939
H    17.21999931   0.96000004  49.43000031
H     6.06999969   0.38000000  51.55000305
H     6.34999990  -1.15999997  50.84000015
