96

S    16.92000008   1.58999991  60.13999939
C    19.59000015   2.00000000  59.50000000
C    18.38000107   1.43999994  59.15000153
C    18.12000084   1.13000000  57.77000046
C    19.14999962   1.26999998  56.86000061
C    20.45999908   1.67999995  57.18999863
C    21.52000046   1.58999991  56.24000168
C    22.76000023   2.00999999  56.65000153
C    22.98000145   2.48000002  57.97000122
C    21.94999886   2.56999993  58.87000275
C    20.62999916   2.14000010  58.54999924
C    16.69000053   0.97999996  57.57999802
C    15.90000057   1.19999993  58.74000168
C    14.51000023   1.30999994  58.74000168
C    24.41999817   2.86000013  58.22999954
H    24.81921768   2.22552800  59.02130890
H    19.82999992   2.39999986  60.47999954
H    18.89999962   1.21000004  55.79999924
H    21.44000053   1.23000002  55.21999741
H    23.61000061   1.89999998  55.97999954
H    22.11999893   2.93000007  59.87999725
H    13.94000053   1.39999998  59.65999985
H    25.10999870   2.66999984  57.39999771
H    24.48999786   3.94000006  58.43000031
S    13.53000069   0.13000000  55.12000275
C    10.85999966  -0.14999999  55.87999725
C    12.10000038   0.39000002  56.12999725
C    12.39999962   0.97999996  57.39999771
C    11.40999985   1.08999991  58.36000061
C    10.08999920   0.65999997  58.04999924
C     9.15999985   0.67000002  59.12000275
C     7.90999985   0.13000000  58.90999603
C     7.55000019  -0.37000000  57.63000107
C     8.45000076  -0.43000001  56.59999847
C     9.77999973   0.03000000  56.79000092
C    13.83999920   1.08999991  57.52999878
C    14.60000038   0.78000003  56.38000107
C    15.98999977   0.69000000  56.39999771
C     6.11999989  -0.79000002  57.37999725
H     5.60767031  -0.14247227  56.66843033
H    10.82999992  -0.65999997  54.93000031
H    11.56000042   1.25999999  59.43000031
H     9.52000046   0.92000002  60.12000275
H     7.18999958   0.14000000  59.72000122
H     8.10999966  -0.97999996  55.72000122
H    16.51000023   0.34999999  55.51000214
H     5.53999996  -0.97999996  58.29999924
H     6.24000025  -1.76999998  56.90999985
S    13.92000008  -1.87999988  52.09000015
C    11.33999920  -2.71000004  52.75000000
C    12.69000053  -2.76999998  53.01000214
C    13.21000004  -3.38000011  54.20000076
C    12.36999989  -3.97000027  55.13000107
C    10.97000027  -3.89999986  54.92000198
C    10.05000019  -4.50000000  55.83000183
C     8.69999981  -4.42999983  55.59999847
C     8.18000031  -3.70000005  54.48999786
C     9.06999969  -3.19000006  53.56999969
C    10.47999954  -3.28000021  53.70999908
C    14.61999989  -3.08999991  54.38000107
C    15.11999989  -2.25999999  53.34000015
C    16.35000038  -1.62000000  53.48999786
C     6.74000025  -3.30000019  54.31000137
H     6.28563213  -3.72597003  53.41546249
H    10.86999989  -2.32999992  51.84000015
H    12.74000072  -4.40000010  56.04999924
H    10.52999973  -4.75000000  56.77000046
H     8.01000023  -4.61999989  56.42000198
H     8.52000046  -2.68000007  52.77000046
H    16.64999962  -0.82000005  52.83000183
H     6.15999985  -3.74000025  55.13000107
H     6.61000013  -2.22000003  54.29999924
S    17.97999954  -3.60000014  56.53999710
C    20.48000145  -2.61000013  55.97999954
C    19.14999962  -2.63000011  55.61999893
C    18.64999962  -1.81999993  54.54999924
C    19.54000092  -1.12000000  53.75999832
C    20.94000053  -1.18000007  53.96999741
C    21.94999886  -0.56000000  53.16999817
C    23.28000069  -0.68000007  53.48999786
C    23.69999886  -1.56000006  54.51000214
C    22.76000023  -2.06999993  55.38999939
C    21.37000084  -1.88999999  55.13999939
C    17.20999908  -2.03999996  54.51000214
C    16.70999908  -2.87999988  55.52999878
C    15.40999985  -3.38000011  55.50000000
C    25.15999985  -1.89999998  54.69999695
H    25.45848465  -1.67258453  55.72336960
H    20.68000031  -3.30000019  56.79000092
H    19.11000061  -0.48000002  52.98999786
H    21.67000008   0.14999999  52.39999771
H    23.94000053  -0.19000000  52.77999878
H    23.06999969  -2.73000002  56.19999695
H    15.03999901  -3.95000005  56.35000229
H    25.76999855  -1.30999994  54.01000214
H    25.38999939  -2.96000004  54.51000214
