96

S    17.02000046   1.67999995  59.79999924
C    19.71999931   1.84000003  59.13999939
C    18.46999931   1.36000013  58.82999802
C    18.15000153   0.79999995  57.55000305
C    19.20999908   0.65999997  56.68000031
C    20.52000046   1.13999999  56.90999985
C    21.61999893   1.03999996  56.00999832
C    22.93000031   1.28000009  56.35000229
C    23.18000031   1.71000004  57.68000031
C    22.13000107   1.93000007  58.54000092
C    20.76999855   1.75000000  58.18999863
C    16.70999908   0.73000002  57.34000397
C    15.97000027   1.24000001  58.43999863
C    14.59000015   1.31999993  58.44999695
C    24.61000061   2.00000000  58.09000015
H    24.90794563   1.36863923  58.92708588
H    19.97999954   2.17999983  60.13999939
H    19.04000092   0.24000001  55.68999863
H    21.45000076   0.67000002  55.00000000
H    23.71999931   1.21000004  55.61999893
H    22.43000031   2.32999992  59.51000214
H    14.04000092   1.62000000  59.34000015
H    25.26000023   1.64000010  57.28000259
H    24.77999878   3.07000017  58.27000046
S    13.48000050  -0.13000000  54.97000122
C    10.80000019  -0.39999998  55.63999939
C    12.05000019   0.07000000  55.98999786
C    12.41000080   0.59000003  57.27000427
C    11.42000008   0.76999998  58.20999908
C    10.11000061   0.37000000  57.84999847
C     9.02999973   0.56000000  58.75999832
C     7.75000000   0.17999999  58.43999863
C     7.46999979  -0.59999996  57.28000259
C     8.47000027  -0.75999999  56.35000229
C     9.76000023  -0.20999999  56.58000183
C    13.85000038   0.76999998  57.38999939
C    14.59000015   0.38000000  56.25000000
C    15.98000050   0.34000003  56.19999695
C     6.12999964  -1.24000001  57.02999878
H     5.64706945  -0.71445781  56.20617676
H    10.70000076  -1.00999999  54.75000000
H    11.64999962   1.29999995  59.13000107
H     9.21000004   1.07000005  59.69999695
H     6.97000027   0.37000000  59.18000031
H     8.30000019  -1.28000009  55.40999985
H    16.52000046   0.08000001  55.30000305
H     5.56999969  -1.29999995  57.97000122
H     6.30999994  -2.24000001  56.62000275
S    17.67000008   2.22000003  53.88000107
C    20.36000061   2.32999992  53.22999954
C    19.09000015   1.94000006  52.87000275
C    18.78999901   1.36000013  51.59999847
C    19.84000015   1.13000000  50.72999954
C    21.14000130   1.62000000  51.00000000
C    22.15999985   1.58999991  50.00999832
C    23.47999954   1.86000001  50.28999710
C    23.75999832   2.36000013  51.59000015
C    22.76000023   2.61000013  52.50000000
C    21.42000008   2.16999984  52.29999924
C    17.35000038   1.25000000  51.38999939
C    16.63999939   1.71000004  52.52999878
C    15.25000000   1.74000001  52.50000000
C    25.12000084   2.94000006  51.88999939
H    25.65986061   2.22255468  52.50799942
H    20.53999901   2.82999992  54.18000031
H    19.72999954   0.48999998  49.86000061
H    21.90999985   1.29999995  48.99000168
H    24.20000076   1.86000001  49.47999954
H    22.98000145   3.05000019  53.47000122
H    14.75999928   2.20000005  53.34999847
H    25.73999786   3.08999991  51.00000000
H    25.09000015   3.93000007  52.36999893
S    14.32000065   0.34999999  48.81999969
C    11.61000061   0.20999999  49.48999786
C    12.90999985   0.43000001  49.88999939
C    13.14000034   1.01999998  51.17000198
C    12.11999989   1.19000006  52.09000015
C    10.78999996   0.88000000  51.72000122
C     9.72000027   1.10000002  52.64999771
C     8.43999958   0.82000005  52.25000000
C     8.14000034   0.32999998  50.94999695
C     9.17000008   0.17000002  50.05000305
C    10.52999973   0.46000001  50.37000275
C    14.55999947   1.28000009  51.37000275
C    15.27999973   0.81000000  50.24000168
C    16.67000008   0.74000001  50.27999878
C     6.76000023  -0.16000001  50.59000015
H     6.28214884   0.49615389  49.86252594
H    11.39000034  -0.17000002  48.50000000
H    12.36999989   1.54999995  53.09000015
H     9.94999981   1.39999998  53.67000198
H     7.53000021   0.99000001  52.83000183
H     9.06000042  -0.11000000  49.01000214
H    17.21999931   0.46999997  49.38000107
H     6.10000038  -0.00000000  51.44000244
H     6.93000031  -1.18000007  50.20999908
