96

S    16.72999954   1.36000013  60.24000168
C    19.47000122   1.35000002  59.64000320
C    18.17000008   1.14999998  59.22999954
C    17.86999893   0.68000007  57.90999985
C    18.94000053   0.37000000  57.09000015
C    20.29000092   0.52999997  57.47000122
C    21.37000084   0.34000003  56.56999969
C    22.67000008   0.54000002  56.95999908
C    22.92000008   1.04999995  58.26000214
C    21.90000153   1.34000003  59.13999939
C    20.55999947   1.00000000  58.81000137
C    16.44000053   0.52999997  57.70999908
C    15.70000076   0.83999997  58.88000107
C    14.30999947   0.83999997  58.81999969
C    24.34999847   1.36999989  58.61999893
H    24.74062157   1.02909386  59.57880020
H    19.63999939   1.97000003  60.51000214
H    18.67000008   0.09000000  56.06999969
H    21.24000168   0.08000001  55.52000046
H    23.47999954   0.45000002  56.24000168
H    22.06999969   1.89999998  60.06000137
H    13.71999931   1.04999995  59.69999695
H    25.10000038   1.11000001  57.85999680
H    24.33000183   2.47000003  58.61999893
S    13.40000057  -0.48999998  55.15999603
C    10.67000008  -0.63000000  55.86000061
C    11.95000076  -0.17999999  56.12999725
C    12.18000031   0.51999998  57.36000061
C    11.13999939   0.85000002  58.20000076
C     9.82999992   0.34999999  58.00000000
C     8.71000004   0.59999996  58.83999634
C     7.40000010   0.28999999  58.55999756
C     7.18999958  -0.37000000  57.32999802
C     8.25000000  -0.64000005  56.49000168
C     9.61999989  -0.34999999  56.76000214
C    13.60000038   0.50000000  57.65999603
C    14.35999966   0.09000000  56.53999710
C    15.73999977   0.20999999  56.53999710
C     5.79999971  -0.90000004  57.02999878
H     5.30928946  -0.39506614  56.19792557
H    10.43000031  -1.19000006  54.95999908
H    11.36999989   1.28999996  59.18000031
H     8.86999989   1.10000002  59.79000092
H     6.50000000   0.48999998  59.13000107
H     7.94000053  -1.14999998  55.58000183
H    16.46999931   0.00000000  55.76000214
H     5.05999994  -0.90999997  57.84000015
H     5.96000004  -1.97000003  56.88000107
S    13.76000023  -2.34999990  51.79000092
C    11.10000038  -2.72000027  52.55000305
C    12.43000031  -2.92000008  52.81999969
C    12.88000011  -3.55999994  54.02000046
C    11.95000076  -4.05000019  54.92000198
C    10.57000065  -3.84000015  54.65999985
C     9.55000019  -4.32999992  55.52000046
C     8.21000004  -4.17000008  55.26000214
C     7.77999973  -3.58000016  54.03999710
C     8.73000050  -3.19999981  53.11999893
C    10.11999989  -3.24000001  53.43000031
C    14.32000065  -3.40000010  54.13999939
C    14.93999958  -2.75999999  53.04000092
C    16.28000069  -2.38999987  53.06000137
C     6.32000017  -3.21000004  53.89999771
H     5.86194324  -3.66090012  53.01967239
H    10.67000008  -2.23000002  51.68000031
H    12.23999977  -4.50000000  55.86000061
H     9.81000042  -4.88000011  56.42000198
H     7.46999979  -4.53000021  55.97000122
H     8.34999943  -2.79000020  52.18999863
H    16.72000122  -1.92000008  52.18999863
H     5.63000011  -3.28999996  54.75000000
H     6.39999962  -2.10999990  53.88000107
S    17.57999992  -3.78999996  56.52000046
C    20.23999977  -3.12000012  55.97000122
C    18.92000008  -3.07000017  55.61000061
C    18.47999954  -2.50999975  54.36000061
C    19.42000008  -2.06999993  53.44999695
C    20.79000092  -2.09999990  53.81000137
C    21.81999969  -1.74000001  52.90000153
C    23.15999985  -1.71000004  53.18999863
C    23.54999924  -2.09999990  54.50000000
C    22.60999870  -2.56999993  55.38999939
C    21.21000099  -2.56000018  55.11000061
C    17.05000114  -2.70000005  54.19000244
C    16.39000130  -3.37000012  55.26000214
C    15.06999969  -3.78999996  55.26000214
C    25.03000069  -2.21000004  54.79999924
H    25.25092125  -2.37390876  55.85471725
H    20.53999901  -3.61999989  56.88999939
H    19.15999985  -1.75000000  52.43999863
H    21.45000076  -1.38999999  51.93999863
H    23.85999870  -1.38999999  52.43000031
H    22.90999985  -2.99000001  56.33999634
H    14.75000000  -4.30999994  56.16000366
H    25.52000046  -1.34000003  54.34000015
H    25.36999893  -3.05999994  54.19000244
