96

S    17.42000008   2.29999995  59.79999924
C    20.10000038   2.50000000  59.10999680
C    18.84000015   2.06999993  58.76999664
C    18.53000069   1.52999997  57.49000168
C    19.56999969   1.24000001  56.62000275
C    20.88000107   1.65999997  56.93000031
C    21.97999954   1.58000004  56.03000259
C    23.23999786   2.04999995  56.31000137
C    23.50000000   2.59999990  57.58999634
C    22.46999931   2.75000000  58.50000000
C    21.17000198   2.26999998  58.20000076
C    17.09000015   1.57000005  57.25999832
C    16.36999893   2.03999996  58.39000320
C    14.98999977   2.16000009  58.36000061
C    24.86999893   3.00000000  58.06999969
H    25.28939629   2.31759167  58.80927277
H    20.22000122   3.19999981  59.93000031
H    19.30999947   0.83999997  55.63999939
H    21.87999916   1.08999991  55.06999969
H    24.05999947   2.05999994  55.59000015
H    22.53999901   3.25999999  59.45999908
H    14.50000000   2.61000013  59.22000122
H    25.55000114   3.07000017  57.21000290
H    24.77000046   4.00000000  58.50000000
S    13.90999985   0.73000002  54.81999969
C    11.21000099   0.75999999  55.52000046
C    12.50000000   1.14999998  55.80999756
C    12.84999943   1.84000003  57.01000214
C    11.84999943   2.16999984  57.90000153
C    10.50000000   1.87000012  57.61000061
C     9.44999981   2.04999995  58.55999756
C     8.14000034   1.71000004  58.31999969
C     7.88999987   1.04999995  57.09000015
C     8.85999966   0.61000001  56.22000122
C    10.18000031   1.08000004  56.45000076
C    14.29999924   1.81999993  57.19999695
C    15.01000023   1.36999989  56.05999756
C    16.39000130   1.19999993  56.11000061
C     6.47000027   0.62000000  56.77999878
H     6.06396484   1.18275023  55.93943405
H    11.03000069   0.14000000  54.65000153
H    12.06999969   2.61999989  58.87000275
H     9.61999989   2.48000002  59.54999924
H     7.34000015   1.84000003  59.03999710
H     8.73000050   0.02000000  55.31000137
H    17.00000000   0.85000002  55.27999878
H     5.88999987   0.96000004  57.65999603
H     6.48999977  -0.46999997  56.69000244
S    14.01999950  -1.50999999  52.02000046
C    11.39999962  -2.17999983  52.57999802
C    12.71999931  -2.26999998  52.95999908
C    13.15999985  -2.82000017  54.20999908
C    12.22000027  -3.48000002  54.98000336
C    10.85000038  -3.17000008  54.79000092
C     9.84000015  -3.42000008  55.76000214
C     8.55000019  -2.99000001  55.56000137
C     8.14999962  -2.50000000  54.29000092
C     9.09000015  -2.22000003  53.31999969
C    10.44000053  -2.57999992  53.54000092
C    14.60000038  -2.61000013  54.36000061
C    15.19999981  -1.92000008  53.27999878
C    16.53000069  -1.51999998  53.34000015
C     6.70000029  -2.09999990  54.09999847
H     6.35995913  -2.46129346  53.12946320
H    11.18999958  -1.59999990  51.68000031
H    12.61999989  -4.00000000  55.84000015
H    10.18000031  -3.75000000  56.73999786
H     7.90000010  -2.96000004  56.43000031
H     8.92000008  -1.53999996  52.49000168
H    17.01000023  -1.16999996  52.43000031
H     6.15000010  -2.52999997  54.93999863
H     6.75000000  -1.00999999  54.15000153
S    17.86999893  -3.17999983  56.70999908
C    20.55000114  -2.47000003  56.12999725
C    19.20999908  -2.42000008  55.84000015
C    18.75000000  -1.81999993  54.61999893
C    19.71999931  -1.25000000  53.81000137
C    21.09999847  -1.28000009  54.10999680
C    22.06000137  -0.79000002  53.18000031
C    23.38000107  -1.08000004  53.40000153
C    23.88000107  -1.67999995  54.59000015
C    22.96999931  -2.15000010  55.50000000
C    21.56999969  -1.95999992  55.27999878
C    17.30999947  -1.90999997  54.43000031
C    16.75000000  -2.79000020  55.38999939
C    15.39999962  -3.12999988  55.38000107
C    25.36000061  -1.98000002  54.68999863
H    25.75898743  -1.73063242  55.67322159
H    20.93000031  -3.21000004  56.83000183
H    19.43000031  -0.85000002  52.84000015
H    21.68999863  -0.48999998  52.19999695
H    24.07999992  -1.00000000  52.56999969
H    23.25000000  -2.80999994  56.31999969
H    14.88000011  -3.71000004  56.13999939
H    25.85000038  -1.43000007  53.88000107
H    25.52000046  -3.05999994  54.52999878
