96

S    16.97000122   1.64000010  59.86000061
C    19.68000031   1.97000003  59.13000107
C    18.39999962   1.58000004  58.81999969
C    18.05999947   1.07000005  57.51999664
C    19.11999893   0.94999999  56.63999939
C    20.46999931   1.23000002  56.97000122
C    21.50000000   1.00000000  56.00999832
C    22.79999924   1.22000003  56.40999603
C    23.15000153   1.86000001  57.63000107
C    22.15999985   1.90999997  58.59000397
C    20.79000092   1.72000003  58.27999878
C    16.62999916   0.87000000  57.36000061
C    15.90000057   1.11000001  58.54999924
C    14.52000046   0.97000003  58.61000061
C    24.60000038   2.16000009  57.94000244
H    25.05514145   1.59107280  58.75072479
H    20.00999832   2.19000006  60.14999771
H    18.94000053   0.50999999  55.65999985
H    21.19999886   0.57999998  55.05000305
H    23.61999893   1.02999997  55.73999786
H    22.37999916   2.24000001  59.59999847
H    13.96000004   1.01999998  59.54000092
H    25.23999977   2.20000005  57.04999924
H    24.51000023   3.15000010  58.40999985
S    13.55000019   0.37000000  54.80999756
C    10.82999992  -0.19999999  55.41999817
C    12.09000015   0.19999999  55.80999756
C    12.38000011   0.59000003  57.15000153
C    11.33999920   0.68000007  58.06999969
C    10.01000023   0.48000002  57.63999939
C     8.97000027   0.39000002  58.61000061
C     7.65999985   0.16000001  58.27000046
C     7.42000008  -0.34000003  56.95999908
C     8.39999962  -0.34000003  55.98999786
C     9.75000000  -0.04000000  56.31999969
C    13.78999901   0.81000000  57.43000031
C    14.55999947   0.57999998  56.25000000
C    15.95000076   0.56999999  56.18000031
C     6.01999998  -0.76999998  56.59000015
H     5.69982815  -0.19369078  55.72198105
H    10.59000015  -0.78000003  54.52999878
H    11.61000061   0.83999997  59.10999680
H     9.21000004   0.51999998  59.65999985
H     6.81999969   0.17999999  58.95999908
H     8.15999985  -0.69000000  54.99000168
H    16.54000092   0.39000002  55.28999710
H     5.26999998  -0.64000005  57.38999939
H     6.10000038  -1.82999992  56.31000137
S    17.61999893   1.94999993  53.62999725
C    20.30999947   1.92000008  52.97000122
C    19.03000069   1.61000001  52.60000229
C    18.68000031   1.24000001  51.25999832
C    19.72999954   1.13000000  50.37000275
C    21.04000092   1.54999995  50.70000076
C    22.13999939   1.44999993  49.79999924
C    23.40999985   1.81999993  50.17000198
C    23.64000130   2.38999987  51.45000076
C    22.69000053   2.37000012  52.43999863
C    21.38999939   1.94999993  52.04000092
C    17.23999977   1.18000007  51.11000061
C    16.54999924   1.66999996  52.25000000
C    15.18000031   1.93000007  52.18999863
C    25.00000000   2.87999988  51.90000153
H    25.48287964   2.28350115  52.67402649
H    20.53999901   2.54999995  53.82999802
H    19.56999969   0.69000000  49.38000107
H    21.97999954   1.08999991  48.79000092
H    24.13000107   1.80999994  49.34999847
H    22.81999969   2.75000000  53.44999695
H    14.78000069   2.36000013  53.09999847
H    25.62000084   2.94000006  50.98999786
H    24.86000061   3.88999987  52.29999924
S    14.04000092   0.57999998  48.63999939
C    11.38000011   0.35999998  49.38999939
C    12.64999962   0.73000002  49.72999954
C    12.97999954   1.38999999  50.96000290
C    11.92999935   1.53999996  51.84999847
C    10.62000084   1.07000005  51.59000015
C     9.59000015   1.19999993  52.56999969
C     8.28999996   0.90999997  52.22000122
C     8.01000023   0.41000003  50.91999817
C     8.98999977   0.08000001  50.00999832
C    10.32999992   0.43000001  50.34000015
C    14.42999935   1.50000000  51.09000397
C    15.14000034   1.07000005  49.93999863
C    16.52000046   0.90000004  49.93999863
C     6.61999989  -0.11000000  50.61999893
H     6.29114008   0.36899161  49.69776154
H    11.16000080   0.13000000  48.34000015
H    12.20999908   1.76999998  52.87000275
H     9.85999966   1.75000000  53.46000290
H     7.53000021   0.90999997  53.00000000
H     8.78000069  -0.32999998  49.02999878
H    17.04000092   0.45000002  49.09999847
H     5.95000029   0.09999999  51.45999908
H     6.61000013  -1.19999993  50.48999786
