96

S    17.38000107   1.44999993  60.01999664
C    20.03999901   1.88999999  59.22999954
C    18.78999901   1.38999999  58.95000076
C    18.46999931   0.93000001  57.63000107
C    19.42000008   1.05999994  56.63000107
C    20.72999954   1.49000001  56.93000031
C    21.71999931   1.58000004  55.90999985
C    22.98000145   2.02999997  56.25000000
C    23.34000015   2.38000011  57.56999969
C    22.39000130   2.37000012  58.55999756
C    21.07999992   1.88999999  58.27000046
C    17.02000046   0.85000002  57.50000000
C    16.28000069   1.00999999  58.69999695
C    14.89999962   1.19000006  58.70999908
C    24.79999924   2.68000007  57.85999680
H    25.16379166   2.01661515  58.64464569
H    20.23999977   2.36000013  60.19000244
H    19.20999908   0.59000003  55.66999817
H    21.48999977   1.04999995  54.99000168
H    23.75999832   1.76999998  55.52999878
H    22.62000084   2.79999995  59.54000092
H    14.37000084   1.28000009  59.65999985
H    25.38999939   2.43000007  56.97000122
H    24.96000099   3.75000000  58.02999878
S    13.89999962   0.14000000  55.01999664
C    11.18000031  -0.17000002  55.72000122
C    12.46000099   0.23000000  56.04999924
C    12.76999950   0.78000003  57.34000397
C    11.80999947   0.92000002  58.31999969
C    10.47000027   0.64000005  57.95000076
C     9.38000011   0.71999997  58.86000061
C     8.09000015   0.50999999  58.43999863
C     7.79999971   0.00000000  57.15000153
C     8.82000065  -0.22000000  56.25000000
C    10.14999962   0.12000000  56.65000153
C    14.19999981   0.97999996  57.51999664
C    14.93999958   0.73000002  56.32999802
C    16.32999992   0.73000002  56.30000305
C     6.38999987  -0.46000001  56.86999893
H     5.89856720   0.11689910  56.08655548
H    11.03999996  -0.46999997  54.68999863
H    12.23000050   1.16999996  59.29000092
H     9.53999996   1.13999999  59.85000229
H     7.23000002   0.69999999  59.08000183
H     8.55000019  -0.69999999  55.31999969
H    16.75000000   0.57999998  55.31000137
H     5.77000046  -0.52999997  57.77999878
H     6.43000031  -1.48000002  56.45000076
S    14.29999924  -2.05999994  52.02999878
C    11.64999962  -2.36000013  52.81000137
C    12.97999954  -2.57999992  53.09000015
C    13.45000076  -3.25000000  54.26000214
C    12.48000050  -3.73000002  55.13000107
C    11.10999966  -3.63999987  54.80999756
C    10.05000019  -4.21999979  55.56999969
C     8.73000050  -4.15000010  55.18000031
C     8.36999989  -3.32999992  54.09000015
C     9.30000019  -2.77999997  53.22999954
C    10.65000057  -2.96000004  53.62999725
C    14.88999939  -3.09999990  54.40999985
C    15.48999977  -2.50000000  53.27999878
C    16.77999878  -1.98000002  53.36000061
C     6.88000011  -3.16000009  53.85000229
H     6.59559155  -3.94212294  53.14608765
H    11.38000011  -1.67999995  52.01000214
H    12.82999992  -4.32999992  55.97000122
H    10.31000042  -4.73000002  56.49000168
H     7.96000004  -4.75000000  55.65999985
H     9.07999992  -2.16000009  52.36999893
H    17.13999939  -1.33000004  52.56000137
H     6.39999962  -3.40000010  54.79999924
H     6.71999979  -2.16000009  53.41999817
S    18.27000046  -3.38000011  56.79999924
C    20.88999939  -2.71000004  56.00000000
C    19.52999878  -2.61000013  55.80999756
C    18.96999931  -2.04999995  54.61999893
C    19.84000015  -1.46000004  53.72000122
C    21.25000000  -1.52999997  53.89999771
C    22.13999939  -0.90000004  52.97999954
C    23.46999931  -0.74000001  53.27999878
C    23.97000122  -1.33000004  54.47000122
C    23.19000053  -2.02999997  55.37000275
C    21.80000114  -2.09000015  55.10000229
C    17.54999924  -2.32999992  54.47000122
C    17.02999878  -3.05999994  55.56999969
C    15.67999935  -3.40000010  55.52999878
C    25.39999962  -1.08999991  54.89999771
H    25.78411484  -1.70885181  55.71091080
H    21.21000099  -3.28999996  56.86000061
H    19.43000031  -0.97000003  52.84000015
H    21.63999939  -0.46000001  52.12999725
H    24.18000031  -0.27000001  52.61000061
H    23.67000198  -2.24000001  56.31999969
H    15.19000053  -3.84999990  56.38000107
H    25.52000046  -0.02000000  55.13999939
H    26.01000023  -1.21000004  54.00000000
