96

S    16.18999863   1.51999998  60.30000305
C    18.86000061   1.67999995  59.62999725
C    17.61000061   1.24000001  59.27999878
C    17.28999901   0.69000000  58.00000000
C    18.30999947   0.64000005  57.05999756
C    19.63000107   1.03999996  57.35000229
C    20.69000053   0.99000001  56.38999939
C    21.96000099   1.39999998  56.70999908
C    22.25000000   1.80000007  58.04000092
C    21.25000000   1.87000012  58.97999573
C    19.88999939   1.58000004  58.66000366
C    15.85999966   0.75000000  57.75000000
C    15.15999985   1.21000004  58.88999939
C    13.78000069   1.36999989  58.82999802
C    23.71000099   2.07999992  58.36000061
H    24.20181084   1.39574265  59.05138779
H    19.19999886   2.20000005  60.52000046
H    18.19000053   0.14999999  56.10000229
H    20.38999939   0.56000000  55.44000244
H    22.76000023   1.38000000  55.97999954
H    21.40000153   2.11999989  60.01999664
H    13.17000008   1.66999996  59.68000031
H    24.23000145   2.14000010  57.39999771
H    23.72999954   3.12999988  58.67000198
S    12.76999950   0.41999999  55.05000305
C    10.05000019   0.29999998  55.73999786
C    11.36000061   0.50999999  56.11999893
C    11.69999981   0.97000003  57.43000031
C    10.65999985   1.04999995  58.34999847
C     9.31999969   0.75000000  58.02000046
C     8.30000019   0.64999998  59.01000214
C     7.02000046   0.23000000  58.73000336
C     6.72999954  -0.12000000  57.38999939
C     7.64999962  -0.03000000  56.37000275
C     8.97999954   0.37000000  56.66999817
C    13.14000034   1.05999994  57.62000275
C    13.83999920   0.74000001  56.43000031
C    15.21999931   0.59000003  56.51000214
C     5.40000010  -0.78000003  57.09000015
H     4.92182159  -0.06630075  56.41912079
H     9.81999969   0.00000000  54.72000122
H    10.93000031   1.22000003  59.38999939
H     8.53999996   0.79000002  60.06000137
H     6.23000050   0.14999999  59.47000122
H     7.53000021  -0.43000001  55.37000275
H    15.72000027   0.32000002  55.59000015
H     4.86999989  -1.01999998  58.02000046
H     5.58000040  -1.75000000  56.60999680
S    13.09000015  -1.70000005  52.00000000
C    10.36999893  -2.16999984  52.64999771
C    11.71000004  -2.36000013  52.90000153
C    12.15999985  -2.82000017  54.18000031
C    11.19999981  -3.30999994  55.05000305
C     9.81000042  -3.17999983  54.81999969
C     8.82999992  -3.65000010  55.73999786
C     7.48000050  -3.54999995  55.50000000
C     7.05999947  -2.94999981  54.29000092
C     7.97999954  -2.49000001  53.37999725
C     9.39000034  -2.57999992  53.57999802
C    13.60000038  -2.69000006  54.34000015
C    14.27999973  -2.07999992  53.25000000
C    15.65999985  -2.05999994  53.09999847
C     5.59999990  -3.00000000  53.89999771
H     5.35080719  -3.55534339  52.99578857
H    10.15999985  -1.75000000  51.66999817
H    11.44999981  -3.75000000  56.00999832
H     9.17000008  -4.18000031  56.63000107
H     6.74000025  -4.00999975  56.14999771
H     7.67000008  -1.95999992  52.48000336
H    16.29999924  -1.51999998  52.39999771
H     4.98000002  -3.22000003  54.77000427
H     5.36000013  -1.94999993  53.67000198
S    16.84000015  -3.84999990  56.52000046
C    19.45999908  -3.15000010  56.10000229
C    18.18000031  -3.12000012  55.61000061
C    17.77000046  -2.38999987  54.43999863
C    18.78999901  -1.75999999  53.75999832
C    20.15999985  -1.86000001  54.12000275
C    21.19999886  -1.26999998  53.34999847
C    22.50999832  -1.44999993  53.70999908
C    22.86999893  -2.21000004  54.85000229
C    21.87000084  -2.66000009  55.68000031
C    20.50000000  -2.57999992  55.31000137
C    16.32999992  -2.50000000  54.25000000
C    15.72000027  -3.21000004  55.31000137
C    14.32999992  -3.31999993  55.35999680
C    24.25000000  -2.75000000  55.15999603
H    24.68545151  -2.30027270  56.05231094
H    19.73999977  -3.58999991  57.04999924
H    18.48999977  -1.24000001  52.84999847
H    20.92000008  -0.59999996  52.54000092
H    23.19999886  -1.12000000  52.93000031
H    22.06000137  -3.31999993  56.52000046
H    13.81999969  -3.86000013  56.14999771
H    24.86999893  -2.59000015  54.27000046
H    24.20999908  -3.84999990  55.19000244
