96

S    17.35999870   1.70000005  59.91000366
C    20.03999901   1.72000003  59.25000000
C    18.76000023   1.39999998  58.87000275
C    18.44000053   0.86000001  57.57999802
C    19.47000122   0.68000007  56.68000031
C    20.79999924   1.01999998  57.02000046
C    21.86000061   0.82999998  56.09000397
C    23.15000153   1.25000000  56.35000229
C    23.45999908   1.80999994  57.62000275
C    22.46999931   1.85000002  58.57999802
C    21.11000061   1.54999995  58.31999969
C    17.00000000   0.68000007  57.41000366
C    16.35000038   0.99000001  58.62999725
C    14.96999931   0.90000004  58.63999939
C    24.82999992   2.38000011  57.88999939
H    25.27072144   1.59807491  58.50843048
H    20.17000008   2.09999990  60.26000214
H    19.22999954   0.41000003  55.65000153
H    21.60000038   0.54000002  55.07999802
H    23.97000122   1.14999998  55.65000153
H    22.67999840   2.16000009  59.59999847
H    14.46000004   1.44999993  59.43999863
H    25.36000061   2.61000013  56.95000076
H    24.65999985   3.32999992  58.41999817
S    13.80000019  -0.28000000  55.02999878
C    11.10000038  -0.24000001  55.75000000
C    12.41000080   0.03000000  56.07999802
C    12.79999924   0.48999998  57.37999725
C    11.79999924   0.61000001  58.33000183
C    10.43000031   0.41999999  58.01000214
C     9.42000008   0.48000002  59.01000214
C     8.14999962   0.01000000  58.81000137
C     7.79999971  -0.32999998  57.47000122
C     8.71000004  -0.38000000  56.45000076
C    10.06000042   0.01000000  56.69000244
C    14.25000000   0.45000002  57.52999878
C    14.93000031   0.09999999  56.33999634
C    16.31000137   0.25000000  56.26999664
C     6.37000036  -0.68000007  57.14000320
H     6.09978342  -0.22489834  56.18712997
H    11.00000000  -0.78000003  54.81999969
H    11.96000004   0.92000002  59.36000061
H     9.78999996   0.71000004  60.00999832
H     7.49000025  -0.22000000  59.64000320
H     8.52999973  -0.79999995  55.45999908
H    16.90999985  -0.07000000  55.41999817
H     5.69000006  -0.50999999  57.97999954
H     6.30000019  -1.77999997  57.11000061
S    14.22000027  -2.03999996  52.06999969
C    11.56999969  -2.72000027  52.80000305
C    12.93000031  -2.91000009  52.90999985
C    13.43999958  -3.58999991  54.06999969
C    12.58999920  -4.19999981  54.97000122
C    11.18000031  -4.05000019  54.89999771
C    10.18000031  -4.56999969  55.77000046
C     8.84000015  -4.42999983  55.48999786
C     8.40999985  -3.63000011  54.40000153
C     9.32999992  -3.08999991  53.54000092
C    10.72000027  -3.26999998  53.79000092
C    14.88000011  -3.38000011  54.18000031
C    15.48999977  -2.56999993  53.18999863
C    16.76000023  -2.00999999  53.30999756
C     6.94000006  -3.40999985  54.12000275
H     6.65619516  -3.75766087  53.12668228
H    11.13999939  -2.02999997  52.08000183
H    12.94999981  -4.81999969  55.79000092
H    10.51000023  -5.21000004  56.58000183
H     8.13000011  -5.05999994  56.00999832
H     9.03999996  -2.43000007  52.72999573
H    17.17000008  -1.25000000  52.64999771
H     6.25999975  -3.97000027  54.78000259
H     6.70000029  -2.33999991  54.09000015
S    18.20999908  -3.73000002  56.55000305
C    20.84000015  -3.05999994  55.90000153
C    19.48999977  -2.94000006  55.63000107
C    18.98999977  -2.25000000  54.47000122
C    19.88999939  -1.77999997  53.53000259
C    21.27000046  -1.87000012  53.81000137
C    22.20000076  -1.16999996  52.98999786
C    23.54000092  -1.12000000  53.29000092
C    24.06999969  -1.72999990  54.47000122
C    23.18000031  -2.44000006  55.24000168
C    21.77999878  -2.50000000  55.00000000
C    17.56000137  -2.48000002  54.34999847
C    16.97999954  -3.32999992  55.33000183
C    15.65000057  -3.72000003  55.28999710
C    25.48999977  -1.51999998  54.93000031
H    25.83901787  -2.26077318  55.64940262
H    21.09999847  -3.65000010  56.77000046
H    19.59000015  -1.16999996  52.68000031
H    21.77999878  -0.54000002  52.22000122
H    24.30000114  -0.51999998  52.80000305
H    23.51000023  -2.64999986  56.25000000
H    15.25000000  -4.28999996  56.12999725
H    25.48999977  -0.51999998  55.37000275
H    26.14999962  -1.46000004  54.05000305
