96

S    17.54999924   1.71000004  60.08999634
C    20.26000023   1.74000001  59.54999924
C    18.98999977   1.52999997  59.06999969
C    18.63999939   1.16999996  57.72999573
C    19.69000053   0.93999994  56.86999893
C    21.02999878   0.97999996  57.31999969
C    22.13000107   0.79000002  56.43000031
C    23.43000031   0.93999994  56.84000015
C    23.67000198   1.52999997  58.09999847
C    22.65999985   1.75000000  59.01000214
C    21.31999969   1.43000007  58.66000366
C    17.20000076   1.00000000  57.57999802
C    16.46000099   1.30999994  58.75000000
C    15.07999992   1.36000013  58.86000061
C    25.03999901   2.11999989  58.37999725
H    25.54610825   1.55686545  59.16411209
H    20.43999863   2.09999990  60.56000137
H    19.54000092   0.71999997  55.81999969
H    22.00000000   0.59999996  55.37000275
H    24.20999908   0.96000004  56.07999802
H    22.90999985   2.09000015  60.01999664
H    14.57999992   1.52999997  59.80999756
H    25.58000183   2.25000000  57.43999863
H    24.82000160   3.17999983  58.61000061
S    14.01999950   0.19999999  55.21999741
C    11.31999969  -0.07000000  55.81999969
C    12.58999920   0.22000000  56.25999832
C    12.93000031   0.64999998  57.58999634
C    11.90999985   0.83999997  58.50000000
C    10.59000015   0.52999997  58.08000183
C     9.53999996   0.63000000  59.03999710
C     8.26000023   0.50000000  58.56999969
C     7.96000004   0.03000000  57.27000427
C     8.93000031  -0.19999999  56.32999802
C    10.26000023   0.07000000  56.75000000
C    14.34999943   0.92000002  57.75000000
C    15.07999992   0.57999998  56.59000015
C    16.46999931   0.54000002  56.47999573
C     6.54999971  -0.48999998  57.08000183
H     6.22397566  -0.17815059  56.08775330
H    11.09000015  -0.37000000  54.79999924
H    12.07999992   0.96000004  59.56999969
H     9.56999969   1.07000005  60.02999878
H     7.49000025   0.50999999  59.34999847
H     8.73000050  -0.46999997  55.28999710
H    16.93000031   0.28000000  55.52999878
H     5.86999989   0.02000000  57.77999878
H     6.48999977  -1.58000004  57.16999817
S    18.36000061   1.92000008  53.74000168
C    21.02999878   2.38000011  53.02999878
C    19.77000046   1.95999992  52.65999603
C    19.36000061   1.52999997  51.35000229
C    20.38000107   1.58000004  50.41999817
C    21.70000076   1.99000001  50.72000122
C    22.70999908   2.02999997  49.72000122
C    24.01000023   2.38999987  49.99000168
C    24.31999969   2.69000006  51.33999634
C    23.38999939   2.82000017  52.34000397
C    22.06000137   2.39999986  52.04999924
C    17.90999985   1.49000001  51.22000122
C    17.20000076   1.61000001  52.43999863
C    15.81999969   1.74000001  52.42000198
C    25.78000069   2.99000001  51.63999939
H    26.32217979   2.27660561  52.26065063
H    21.15999985   2.82000017  54.01000214
H    20.13000107   1.30999994  49.38999939
H    22.39999962   1.72999990  48.72000122
H    24.69000053   2.51999998  49.15000153
H    23.59000015   3.12000012  53.36999893
H    15.34000015   1.99000001  53.36999893
H    26.25999832   3.01999998  50.65000153
H    25.76000023   4.01999998  52.00000000
S    14.70000076   1.22000003  48.67000198
C    12.02999973   0.59000003  49.34999847
C    13.26000023   1.10000002  49.69999695
C    13.61999989   1.43000007  51.04999924
C    12.58999920   1.47000003  51.97999954
C    11.28000069   1.05999994  51.62000275
C    10.21000004   1.04999995  52.55000305
C     8.97000027   0.51999998  52.27000427
C     8.71000004  -0.01000000  50.97999954
C     9.72000027  -0.03000000  50.05000305
C    11.00999928   0.50000000  50.31999969
C    15.05000019   1.59999990  51.26999664
C    15.77000046   1.50999999  50.05000305
C    17.15999985   1.43999994  50.04000092
C     7.26000023  -0.34999999  50.68999863
H     6.94020987   0.18298391  49.79458618
H    11.80999947   0.13000000  48.39000320
H    12.74000072   1.72999990  53.02000046
H    10.48999977   1.38999999  53.54999924
H     8.13000011   0.59999996  52.95000076
H     9.48999977  -0.41999999  49.05000305
H    17.64000130   1.46000004  49.06000137
H     6.65000010  -0.00000000  51.52999878
H     7.04999971  -1.42000008  50.58000183
