96

S    17.32999992   1.28000009  60.05000305
C    20.05000114   1.28000009  59.38999939
C    18.75000000   1.00999999  59.02000046
C    18.43000031   0.67000002  57.67000198
C    19.47999954   0.56000000  56.77000046
C    20.81000137   0.90999997  57.09000015
C    21.87000084   0.90000004  56.12999725
C    23.12999916   1.19000006  56.59000015
C    23.42000008   1.76999998  57.84999847
C    22.36000061   1.93000007  58.72000122
C    21.09000015   1.35000002  58.43000031
C    16.98999977   0.67000002  57.44999695
C    16.29999924   1.08000004  58.61999893
C    14.91000080   1.00999999  58.61000061
C    24.80999947   2.27999997  58.15000153
H    25.27966499   1.67512774  58.92565918
H    20.22000122   1.80000007  60.33000183
H    19.37000084   0.08000001  55.79999924
H    21.56999969   0.59999996  55.13000107
H    23.88999939   1.00999999  55.83000183
H    22.47999954   2.24000001  59.75000000
H    14.35999966   1.34000003  59.48999786
H    25.43999863   2.25999999  57.25999832
H    24.75000000   3.33999991  58.43999863
S    13.82999992   0.01000000  54.91000366
C    11.13999939  -0.25000000  55.72000122
C    12.42000008   0.20999999  55.96000290
C    12.75000000   0.68000007  57.27000427
C    11.75000000   0.88000000  58.20000076
C    10.39000034   0.59000003  57.94000244
C     9.35000038   0.68000007  58.89999771
C     8.09000015   0.23000000  58.56999969
C     7.77999973  -0.24000001  57.27000427
C     8.78999996  -0.45000002  56.36000061
C    10.11999989  -0.04000000  56.68000031
C    14.19999981   0.71000004  57.44999695
C    14.92000008   0.37000000  56.26999664
C    16.31000137   0.35999998  56.26999664
C     6.35999966  -0.51999998  56.83000183
H     5.96215725   0.20464188  56.11956787
H    10.84000015  -0.75999999  54.80999756
H    11.92000008   1.13000000  59.25000000
H     9.59999943   0.97999996  59.92000198
H     7.27999973   0.24000001  59.29999924
H     8.73999977  -0.83999997  55.34999847
H    16.84000015  -0.12000000  55.45999908
H     5.91000032  -0.22000000  57.77999878
H     6.21999979  -1.58000004  56.59000015
S    17.71000099   1.84000003  53.88999939
C    20.43000031   2.04999995  53.22000122
C    19.15999985   1.64000010  52.88000107
C    18.86999893   1.24000001  51.52999878
C    19.89999962   0.93999994  50.66999817
C    21.22999954   1.28000009  51.02000427
C    22.32999992   1.00000000  50.15999603
C    23.61999893   1.24000001  50.56999969
C    23.87000084   2.02999997  51.72999954
C    22.81999969   2.32999992  52.56000137
C    21.48999977   1.92000008  52.29000092
C    17.43000031   1.22000003  51.32999802
C    16.68000031   1.65000010  52.44999695
C    15.29999924   1.72999990  52.39999771
C    25.25000000   2.38999987  52.21000290
H    25.65537834   1.70725822  52.95675278
H    20.48000145   2.50000000  54.20999908
H    19.76000023   0.19999999  49.87999725
H    22.11999893   0.59999996  49.18000031
H    24.40999985   0.94999999  49.87999725
H    22.95000076   2.69000006  53.57999802
H    14.65000057   1.62000000  53.26000214
H    25.88999939   2.31999993  51.32999802
H    25.25000000   3.47000003  52.43000031
S    14.40000057   0.71000004  48.66000366
C    11.68000031   0.50000000  49.22999954
C    12.94999981   0.79000002  49.66999817
C    13.21000004   1.19000006  51.02000427
C    12.13999939   1.08999991  51.90000153
C    10.80000019   0.88000000  51.50000000
C     9.71000004   0.90000004  52.41000366
C     8.43999958   0.59999996  51.97999954
C     8.17000008   0.27000001  50.63000107
C     9.23999977   0.19999999  49.77000427
C    10.57000065   0.59999996  50.10000229
C    14.61999989   1.50000000  51.18999863
C    15.39999962   1.08000004  50.07999802
C    16.77999878   0.93999994  50.12000275
C     6.76999998  -0.13000000  50.24000168
H     6.32682180   0.58480376  49.54664230
H    11.50000000   0.24000001  48.18999863
H    12.38999939   1.36000013  52.91999817
H     9.86999989   1.13999999  53.46000290
H     7.76999998   0.34000003  52.78999710
H     9.11000061  -0.27000001  48.80000305
H    17.26000023   0.69000000  49.18000031
H     6.02999973  -0.34999999  51.02000427
H     6.86999989  -1.08000004  49.69999695
