96

S    16.94000053   1.36000013  60.06000137
C    19.63000107   1.62000000  59.31000137
C    18.35000038   1.19999993  59.00000000
C    18.06999969   0.69999999  57.70000076
C    19.10000038   0.43000001  56.81000137
C    20.36000061   0.99000001  57.11000061
C    21.50000000   0.85000002  56.26999664
C    22.79999924   1.08999991  56.63000107
C    23.09000015   1.62000000  57.91999817
C    22.03000069   1.88999999  58.75000000
C    20.69000053   1.59999990  58.36999893
C    16.62999916   0.54000002  57.55000305
C    15.88999939   1.01999998  58.66000366
C    14.51000023   1.13000000  58.67000198
C    24.51000023   2.00999999  58.25000000
H    24.92719269   1.41603065  59.06317139
H    19.86999893   2.13000011  60.25000000
H    18.88000107  -0.06000000  55.86000061
H    21.32999802   0.35999998  55.31999969
H    23.64000130   0.82000005  56.00000000
H    22.15999985   2.30999994  59.73999786
H    14.01000023   1.51999998  59.54999924
H    25.20000076   1.86000001  57.42000198
H    24.77000046   3.05999994  58.44999695
S    13.45000076   0.01000000  54.95999908
C    10.75000000  -0.16000001  55.61000061
C    12.02000046   0.20999999  55.98999786
C    12.38000011   0.75999999  57.27000427
C    11.36999989   0.97999996  58.18999863
C    10.06000042   0.65999997  57.77000046
C     9.02000046   0.81000000  58.73000336
C     7.72000027   0.46000001  58.44999695
C     7.34000015  -0.19000000  57.23999786
C     8.36000061  -0.41999999  56.35000229
C     9.68999958   0.07000000  56.51000214
C    13.81000042   0.71999997  57.52999878
C    14.50000000   0.29999998  56.36000061
C    15.88000107   0.13000000  56.44000244
C     5.88999987  -0.41999999  56.86000061
H     5.49063635   0.27175513  56.11832428
H    10.51000023  -0.57999998  54.62999725
H    11.54999924   1.36000013  59.19000244
H     9.31999969   1.21000004  59.68999863
H     6.98999977   0.73000002  59.20000076
H     8.10999966  -0.97999996  55.45999908
H    16.44000053  -0.19000000  55.56000137
H     5.38999987  -0.32999998  57.83000183
H     5.78000021  -1.44999993  56.49000168
S    17.20999908   1.92000008  53.88000107
C    19.89999962   2.16999984  53.31999969
C    18.65999985   1.77999997  52.85999680
C    18.38999939   1.29999995  51.53999710
C    19.47000122   1.07000005  50.70000076
C    20.76999855   1.35000002  51.18999863
C    21.86000061   1.11000001  50.31000137
C    23.08000183   1.69000006  50.52000046
C    23.31999969   2.40999985  51.72000122
C    22.32000160   2.48000002  52.65999603
C    21.01000023   1.94999993  52.48000336
C    16.95999908   1.28999996  51.25999832
C    16.25000000   1.70000005  52.41000366
C    14.85999966   1.76999998  52.37999725
C    24.65999985   3.01999998  52.09000015
H    25.31001091   2.36998916  52.67572403
H    19.90999985   2.69000006  54.27999878
H    19.29000092   0.85000002  49.65000153
H    21.65999985   0.64999998  49.34000015
H    23.78999901   1.62000000  49.69999695
H    22.46999931   3.12000012  53.53000259
H    14.32000065   1.80999994  53.33000183
H    25.15000153   3.26999998  51.13999939
H    24.51000023   3.94000006  52.64999771
S    13.81000042   0.43000001  48.80000305
C    11.10000038   0.29999998  49.45000076
C    12.35999966   0.73000002  49.79000092
C    12.71999931   1.13999999  51.11000061
C    11.72999954   1.25999999  52.06999969
C    10.38000011   1.01999998  51.72000122
C     9.34000015   1.19999993  52.65999603
C     8.05000019   0.79000002  52.38999939
C     7.76000023   0.34000003  51.07999802
C     8.71999931   0.17000002  50.11000061
C    10.06999969   0.52999997  50.40000153
C    14.14999962   1.39999998  51.23000336
C    14.88999939   1.02999997  50.07999802
C    16.28000069   0.99000001  50.07999802
C     6.32000017  -0.09999999  50.93999863
H     5.85203695   0.50977027  50.16715240
H    10.80000019  -0.13000000  48.50000000
H    12.01000023   1.51999998  53.09000015
H     9.72000027   1.44999993  53.64999771
H     7.17999983   0.90000004  53.02999878
H     8.61999989  -0.20999999  49.09999847
H    16.77999878   0.59999996  49.20000076
H     5.82000017   0.12000000  51.88999939
H     6.05999994  -1.13999999  50.70000076
