96

S    17.51000023   2.09000015  60.13000107
C    20.25000000   2.09000015  59.54999924
C    18.96999931   1.72999990  59.19000244
C    18.73999977   1.39999998  57.81999969
C    19.80999947   1.24000001  56.95999908
C    21.05999947   1.81999993  57.27000427
C    22.18000031   1.72000003  56.39999771
C    23.40999985   2.16000009  56.83000183
C    23.62999916   2.49000001  58.20000076
C    22.59000015   2.69000006  59.06999969
C    21.31999969   2.21000004  58.62999725
C    17.30999947   1.46000004  57.55000305
C    16.53000069   1.82999992  58.67000198
C    15.17000008   2.09999990  58.53000259
C    25.03000069   2.77999997  58.68999863
H    25.42617989   1.99471462  59.33378983
H    20.40999985   2.63000011  60.47999954
H    19.73999977   0.90999997  55.93000031
H    22.04999924   1.21000004  55.45000076
H    24.20000076   2.14000010  56.09000397
H    22.69000053   3.00999999  60.10000229
H    14.55000019   2.34999990  59.38000107
H    25.69999886   2.75999999  57.81999969
H    25.05000114   3.75000000  59.19000244
S    14.19000053   0.57999998  54.99000168
C    11.51000023   0.32000002  55.79999924
C    12.76999950   0.82000005  56.02000427
C    13.09000015   1.56000006  57.21000290
C    12.07999992   1.70000005  58.13999939
C    10.78999996   1.13000000  58.02999878
C     9.81999969   1.31999993  59.05000305
C     8.55000019   0.83999997  58.81999969
C     8.18000031   0.34999999  57.54000092
C     9.13000011   0.14000000  56.56999969
C    10.48999977   0.50000000  56.77000046
C    14.52999973   1.72000003  57.34000397
C    15.26999950   1.15999997  56.27999878
C    16.65999985   1.12000000  56.36000061
C     6.72999954  -0.01000000  57.32999802
H     6.43826246   0.47385752  56.39786530
H    11.39999962  -0.05000000  54.79000092
H    12.34000015   2.24000001  59.05000305
H    10.14999962   1.75000000  60.00000000
H     7.83999968   0.97999996  59.62999725
H     8.82999992  -0.31000000  55.61999893
H    17.27000046   0.65999997  55.58000183
H     6.02999973   0.34999999  58.09999847
H     6.65999985  -1.10000002  57.16999817
S    14.29999924  -1.53999996  51.95999908
C    11.63000011  -1.92000008  52.56000137
C    12.93000031  -2.27999997  52.80000305
C    13.36999989  -2.82999992  54.05000305
C    12.38999939  -3.42999983  54.81999969
C    11.00999928  -3.24000001  54.58000183
C     9.98000050  -3.68000007  55.45999908
C     8.65999985  -3.32999992  55.28999710
C     8.27999973  -2.63000011  54.10999680
C     9.25000000  -2.26999998  53.20999908
C    10.65000057  -2.50000000  53.40000153
C    14.78999996  -2.64999986  54.31000137
C    15.42000008  -1.90999997  53.27999878
C    16.76000023  -1.52999997  53.37999725
C     6.84000015  -2.33999991  53.74000168
H     6.44098711  -2.87439275  52.87784576
H    11.26000023  -1.31999993  51.72999954
H    12.75000000  -4.07999992  55.61000061
H    10.36999893  -4.26000023  56.30000305
H     7.86000013  -3.75000000  55.87999725
H     8.96000004  -1.75000000  52.29999924
H    17.20000076  -0.97999996  52.55000305
H     6.25999975  -2.52999997  54.65000153
H     6.78999996  -1.26999998  53.54000092
S    17.94000053  -3.48000002  56.70000076
C    20.55999947  -2.47000003  56.46999741
C    19.26000023  -2.50999975  56.03000259
C    18.86000061  -1.87999988  54.80999756
C    19.81999969  -1.22000003  54.06999969
C    21.18999863  -1.28999996  54.43000031
C    22.19000053  -0.83999997  53.50999832
C    23.51000023  -0.93999994  53.87000275
C    23.90000153  -1.65999997  55.02999878
C    22.93999863  -2.09000015  55.90999985
C    21.55999947  -1.81999993  55.70999908
C    17.43999863  -2.01999998  54.48999786
C    16.82999992  -2.84000015  55.47000122
C    15.48999977  -3.19999981  55.40000153
C    25.34000015  -2.07999992  55.21999741
H    25.72464943  -1.59562755  56.11750793
H    20.88000107  -2.99000001  57.36999893
H    19.56999969  -0.69999999  53.15000153
H    21.84999847  -0.29999998  52.63999939
H    24.30000114  -0.56999999  53.22000122
H    23.26000023  -2.69000006  56.77000046
H    15.06999969  -3.95000005  56.05999756
H    25.86999893  -1.71000004  54.33000183
H    25.45999908  -3.17000008  55.19000244
