96

S    16.73999977   1.75999999  59.93999863
C    19.40000153   2.13000011  59.36999893
C    18.18000031   1.70000005  58.90999603
C    17.92000008   1.13000000  57.61000061
C    18.96999931   1.10000002  56.70999908
C    20.23999977   1.46000004  57.19999695
C    21.38000107   1.15999997  56.38999939
C    22.65000153   1.50000000  56.77999878
C    22.84000015   2.25999999  57.97000122
C    21.81999969   2.43000007  58.88000107
C    20.52000046   1.98000002  58.50999832
C    16.47999954   0.97999996  57.43999863
C    15.71000004   1.38000000  58.54999924
C    14.32000065   1.39999998  58.59000397
C    24.26000214   2.66999984  58.29000092
H    24.77784920   1.96062040  58.93553543
H    19.43000031   2.68000007  60.31000137
H    18.78000069   0.59999996  55.76000214
H    21.21999931   0.71999997  55.40999985
H    23.46999931   1.43000007  56.07999802
H    21.97000122   2.80999994  59.87999725
H    13.78000069   1.65000010  59.50000000
H    24.79999924   2.89000010  57.35000229
H    24.18999863   3.63000011  58.80000305
S    13.23999977   0.34000003  54.95999908
C    10.47999954   0.38000000  55.59999847
C    11.78999996   0.67000002  55.93000031
C    12.13999939   1.05999994  57.25999832
C    11.14999962   1.12000000  58.22999954
C     9.81000042   0.85000002  57.87000275
C     8.82000065   0.94999999  58.88999939
C     7.48000050   0.71999997  58.64999771
C     7.13000011   0.28000000  57.35000229
C     8.06999969   0.08000001  56.37000275
C     9.42000008   0.50000000  56.52999878
C    13.57999992   1.10000002  57.43000031
C    14.34000015   0.74000001  56.29000092
C    15.72999954   0.61000001  56.31999969
C     5.72000027  -0.13000000  56.97999954
H     5.36524296   0.39504075  56.09310532
H    10.29999924  -0.25000000  54.73999786
H    11.38000011   1.39999998  59.25000000
H     9.19000053   1.15999997  59.88999939
H     6.71999979   0.83999997  59.41999817
H     7.92000008  -0.46000001  55.44000244
H    16.15999985   0.37000000  55.34999847
H     5.00000000  -0.06000000  57.80000305
H     5.79999971  -1.19000006  56.70999908
S    13.88000011  -1.64000010  52.18000031
C    11.21999931  -2.23000002  52.81999969
C    12.56000042  -2.50000000  53.00000000
C    13.02000046  -3.07999992  54.22000122
C    12.09000015  -3.49000001  55.15999603
C    10.70000076  -3.28000021  55.00000000
C     9.80000019  -3.71000004  56.02000427
C     8.50000000  -3.81999993  55.59000015
C     8.00000000  -3.28000021  54.38000107
C     8.85999966  -2.57999992  53.55999756
C    10.26000023  -2.73000002  53.74000168
C    14.46000004  -2.93000007  54.40999985
C    15.07999992  -2.23000002  53.34999847
C    16.39999962  -1.80000007  53.43000031
C     6.52999973  -3.48000002  54.06000137
H     6.21605968  -2.98768449  53.13958359
H    10.93999958  -1.50999999  52.05999756
H    12.46999931  -3.95000005  56.06999969
H    10.21000004  -4.07999992  56.95000076
H     7.79999971  -4.30999994  56.25999832
H     8.50000000  -2.22000003  52.60000229
H    16.69999886  -1.02999997  52.71999741
H     6.57000017  -4.55999994  53.90999603
H     5.84000015  -3.35000014  54.89999771
S    17.71999931  -3.42999983  56.79000092
C    20.42000008  -2.73000002  56.22000122
C    19.07999992  -2.68000007  55.93000031
C    18.63000107  -1.99000001  54.75999832
C    19.47999954  -1.41000009  53.82999802
C    20.86000061  -1.50000000  54.09999847
C    21.84999847  -0.94999999  53.23999786
C    23.21000099  -1.00999999  53.47999954
C    23.62999916  -1.56000006  54.71000290
C    22.72000122  -2.09000015  55.59999847
C    21.32999802  -2.14000010  55.30000305
C    17.20000076  -2.13000011  54.52999878
C    16.56999969  -2.89000010  55.54999924
C    15.21999931  -3.19999981  55.56000137
C    25.02000046  -1.19999993  55.19000244
H    25.39851379  -1.77848125  56.03273010
H    20.72000122  -3.17000008  57.16999817
H    19.09000015  -0.96000004  52.91999817
H    21.40000153  -0.48999998  52.36999893
H    23.78000069  -0.24000001  52.97000122
H    22.95999908  -2.28999996  56.63999939
H    14.75999928  -3.71000004  56.39999771
H    24.86999893  -0.14000000  55.41999817
H    25.71000099  -1.30999994  54.34000015
