96

S    16.80999947   1.33000004  60.11000061
C    19.54000092   1.33000004  59.50000000
C    18.25000000   1.08000004  59.09999847
C    17.88999939   0.68000007  57.77000046
C    18.90999985   0.52999997  56.84000015
C    20.27000046   0.69000000  57.22000122
C    21.35999870   0.44000000  56.33999634
C    22.65000153   0.73000002  56.73999786
C    22.89999962   1.36000013  57.98999786
C    21.86000061   1.66999996  58.83999634
C    20.56999969   1.14999998  58.54999924
C    16.45000076   0.69000000  57.57999802
C    15.72000027   1.00000000  58.75000000
C    14.34000015   1.15999997  58.75000000
C    24.27999878   1.81999993  58.39000320
H    24.76402092   1.11532235  59.06620789
H    19.81999969   1.69000006  60.48999786
H    18.61999893   0.37000000  55.80999756
H    21.05999947   0.16000001  55.34000015
H    23.31999969   0.67000002  55.89000320
H    22.04999924   2.32999992  59.68000031
H    13.94000053   1.58999991  59.66999817
H    24.93000031   2.00000000  57.51999664
H    24.13999939   2.75999999  58.94000244
S    13.32999992  -0.13000000  55.13999939
C    10.62999916  -0.45000002  55.86999893
C    11.89000034   0.02000000  56.17000198
C    12.18000031   0.64999998  57.42000198
C    11.18000031   0.90000004  58.34000015
C     9.84000015   0.62000000  57.95999908
C     8.76999950   0.92000002  58.85000229
C     7.44999981   0.76999998  58.52000427
C     7.18999958   0.06000000  57.30999756
C     8.19999981  -0.39000002  56.49000168
C     9.55999947  -0.08000001  56.72999954
C    13.60000038   0.92000002  57.57999802
C    14.34999943   0.48999998  56.45999908
C    15.73999977   0.51999998  56.38999939
C     5.75999975  -0.34999999  57.04999924
H     5.32621193   0.20467958  56.21797943
H    10.43000031  -1.08999991  55.01999664
H    11.39999962   1.23000002  59.34999847
H     9.13000011   1.25000000  59.81999969
H     6.65999985   0.87000000  59.26000214
H     7.95000029  -1.01999998  55.63999939
H    16.35000038   0.22000000  55.54000092
H     5.15999985  -0.14000000  57.95000076
H     5.69999981  -1.42000008  56.83000183
S    13.86000061  -2.05999994  52.22999954
C    11.19999981  -2.72000027  52.88000107
C    12.53000069  -2.66999984  53.22999954
C    12.94000053  -3.28999996  54.45999908
C    11.98999977  -3.86999989  55.27999878
C    10.60999966  -3.86000013  54.95999908
C     9.57999992  -4.34999990  55.80999756
C     8.27000046  -4.21000004  55.41999817
C     7.82000017  -3.53999996  54.25000000
C     8.82000065  -3.10999990  53.41999817
C    10.19999981  -3.26999998  53.72000122
C    14.39000034  -3.22000003  54.48999786
C    15.03999901  -2.44000006  53.50000000
C    16.36999893  -2.05999994  53.61000061
C     6.37000036  -3.22000003  53.93000031
H     5.97913742  -3.64639592  53.00614166
H    10.85999966  -2.15000010  52.02000046
H    12.30000019  -4.15000010  56.29000092
H     9.89999962  -4.86000013  56.70999908
H     7.55999994  -4.67000008  56.11000061
H     8.47000027  -2.50999975  52.56999969
H    16.86000061  -1.64000010  52.74000168
H     5.80999947  -3.58999991  54.79999924
H     6.15999985  -2.15000010  53.99000168
S    17.50000000  -3.71000004  57.04000092
C    20.20999908  -3.38999987  56.44000244
C    18.89999962  -3.12999988  56.11000061
C    18.53999901  -2.38000011  54.94999695
C    19.55000114  -1.94000006  54.12000275
C    20.90999985  -2.27999997  54.34999847
C    21.91999817  -1.81999993  53.46000290
C    23.23999786  -2.04999995  53.75000000
C    23.61000061  -2.80999994  54.87999725
C    22.63999939  -3.16000009  55.79000092
C    21.25000000  -2.96000004  55.56999969
C    17.09000015  -2.38000011  54.78000259
C    16.42000008  -3.16000009  55.75000000
C    15.11000061  -3.63000011  55.61999893
C    25.00999832  -3.37000012  55.06000137
H    25.57939911  -2.95718622  55.89274979
H    20.42000008  -3.96000004  57.34000397
H    19.34000015  -1.48000002  53.15000153
H    21.52000046  -1.15999997  52.69000244
H    24.01000023  -1.80999994  53.02000046
H    22.95000076  -3.73000002  56.65999985
H    14.68999958  -4.23000002  56.42000198
H    25.65999985  -3.21000004  54.20000076
H    24.82000160  -4.44999981  55.15999603
