96

S    17.25000000   2.20000005  60.01999664
C    19.98999977   2.13000011  59.29999924
C    18.68000031   1.76999998  59.06000137
C    18.30999947   1.21000004  57.80000305
C    19.27000046   0.99000001  56.83000183
C    20.61000061   1.36999989  57.04999924
C    21.63999939   1.18000007  56.07999802
C    22.95999908   1.43000007  56.32999802
C    23.26999855   2.17999983  57.49000168
C    22.27999878   2.57999992  58.36000061
C    20.96999931   2.02999997  58.27999878
C    16.86000061   1.23000002  57.65999603
C    16.10000038   1.72999990  58.75999832
C    14.72000027   1.87000012  58.70999908
C    24.70999908   2.47000003  57.88000107
H    25.06523895   1.76662672  58.63311005
H    20.27000046   2.63999987  60.20999908
H    18.97999954   0.46999997  55.91999817
H    21.31000137   0.69000000  55.15999603
H    23.78000069   0.94999999  55.79000092
H    22.50999832   3.12000012  59.27000046
H    14.19999981   2.17999983  59.61999893
H    25.43000031   2.43000007  57.04999924
H    24.63999939   3.45999980  58.33000183
S    13.69999981   0.27000001  55.22999573
C    11.00000000   0.14999999  55.90000153
C    12.25999928   0.61000001  56.18999863
C    12.63000011   1.00000000  57.51999664
C    11.61999893   1.15999997  58.44999695
C    10.27999973   0.83999997  58.11999893
C     9.15999985   0.96000004  58.99000168
C     7.88999987   0.56000000  58.64999771
C     7.63999987  -0.13000000  57.43999863
C     8.64999962  -0.24000001  56.51000214
C     9.96000004   0.20999999  56.86000061
C    14.04000092   1.35000002  57.60000229
C    14.78999996   0.85000002  56.51000214
C    16.18000031   0.83999997  56.51000214
C     6.24000025  -0.61000001  57.09999847
H     5.78427553   0.03086239  56.34520721
H    10.80000019  -0.31000000  54.93000031
H    11.79999924   1.50999999  59.45999908
H     9.39000034   1.26999998  60.00999832
H     7.09000015   0.67000002  59.36999893
H     8.48999977  -0.64999998  55.52000046
H    16.75000000   0.48999998  55.65999985
H     5.56999969  -0.85000002  57.93000031
H     6.28999996  -1.61000001  56.65000153
S    14.15999985  -1.76999998  51.98999786
C    11.50000000  -2.24000001  52.71999741
C    12.82999992  -2.32999992  53.02999878
C    13.30000019  -2.98000002  54.22000122
C    12.35999966  -3.44000006  55.12000275
C    10.97000027  -3.28999996  54.91000366
C     9.94000053  -3.79999995  55.75000000
C     8.64000034  -3.94000006  55.34000015
C     8.19999981  -3.28000021  54.16999817
C     9.15000057  -2.68000007  53.36999893
C    10.54999924  -2.73999977  53.63999939
C    14.73999977  -2.96000004  54.38999939
C    15.29000092  -2.32999992  53.22999954
C    16.62999916  -1.98000002  53.33000183
C     6.75000000  -3.33999991  53.72000122
H     6.66454649  -3.85984230  52.76576614
H    11.23000050  -1.93000007  51.70999908
H    12.69999981  -4.02999973  55.96000290
H    10.26999950  -4.28999996  56.66999817
H     7.92999983  -4.65000010  55.75000000
H     8.78000069  -2.13000011  52.50999832
H    17.18000031  -1.65000010  52.44999695
H     6.30999994  -4.00999975  54.47000122
H     6.25000000  -2.37000012  53.67000198
S    17.93000031  -3.28000021  56.86999893
C    20.61000061  -2.76999998  56.30000305
C    19.29000092  -2.63000011  55.93000031
C    18.81999969  -2.09000015  54.68999863
C    19.79999924  -1.79000008  53.75999832
C    21.17000198  -1.89999998  54.06999969
C    22.10000038  -1.31999993  53.15999985
C    23.44000053  -1.51999998  53.37999725
C    23.90999985  -2.05999994  54.61000061
C    23.00000000  -2.44000006  55.56999969
C    21.60000038  -2.39999986  55.34999847
C    17.38000107  -2.21000004  54.48999786
C    16.77999878  -2.86999989  55.59000015
C    15.48999977  -3.38999987  55.47999954
C    25.38999939  -2.20000005  54.86999893
H    25.76029968  -1.90803349  55.85271835
H    20.95000076  -3.15000010  57.25999832
H    19.52000046  -1.28999996  52.84000015
H    21.71999931  -0.75999999  52.29999924
H    24.13999939  -1.07000005  52.68000031
H    23.29000092  -2.79999995  56.55000305
H    15.07999992  -4.03999996  56.25000000
H    25.90999985  -1.67999995  54.06000137
H    25.65999985  -3.25999999  54.73999786
