96

S    16.27000046   1.61000001  59.91000366
C    19.04000092   1.41000009  59.34000015
C    17.72999954   1.14999998  59.01000214
C    17.42000008   0.41000003  57.81999969
C    18.44000053   0.11000000  56.93999863
C    19.77000046   0.54000002  57.18000031
C    20.78000069   0.34000003  56.18999863
C    22.06999969   0.75999999  56.35000229
C    22.36999893   1.41000009  57.57999802
C    21.44000053   1.58999991  58.57999802
C    20.10000038   1.12000000  58.44999695
C    15.98999977   0.51999998  57.56999969
C    15.19999981   1.04999995  58.61000061
C    13.81999969   1.23000002  58.50999832
C    23.75000000   1.97000003  57.84999847
H    24.17176247   1.36237705  58.65063095
H    19.23999977   2.09000015  60.17000198
H    18.15000153  -0.62000000  56.18999863
H    20.45000076  -0.05000000  55.22999573
H    22.86000061   0.64999998  55.61999893
H    21.78999901   2.19000006  59.40999985
H    13.21000004   1.49000001  59.36999893
H    24.47000122   1.94999993  57.02000046
H    23.68999863   3.03999996  58.09999847
S    13.09000015   0.09999999  54.73999786
C    10.32999992  -0.05000000  55.11000061
C    11.56000042   0.25000000  55.63999939
C    11.78999996   0.64000005  57.00000000
C    10.67000008   0.79000002  57.80000305
C     9.40999985   0.34000003  57.34000397
C     8.23000050   0.32999998  58.15000153
C     6.97000027  -0.05000000  57.74000168
C     6.80999994  -0.24000001  56.33999634
C     7.90000010  -0.39000002  55.52000046
C     9.19999981  -0.02000000  55.96000290
C    13.20000076   0.82000005  57.32999802
C    14.00000000   0.41999999  56.23000336
C    15.39000034   0.32999998  56.31999969
C     5.44000053  -0.34000003  55.70999908
H     4.96408081   0.60473573  55.44717789
H    10.27999973  -0.35999998  54.06999969
H    10.85000038   1.24000001  58.76999664
H     8.36000061   0.48000002  59.20999908
H     6.09000015   0.09000000  58.36000061
H     7.67000008  -0.65999997  54.48999786
H    15.85999966   0.07000000  55.38000107
H     4.78999996  -0.96000004  56.33999634
H     5.63000011  -0.93999994  54.80999756
S    13.63999939  -2.04999995  52.09999847
C    10.98999977  -2.77999997  52.75000000
C    12.32999992  -2.73999977  53.08000183
C    12.79000092  -3.28000021  54.33000183
C    11.92000008  -3.81000018  55.26000214
C    10.52999973  -3.81000018  54.98000336
C     9.59999943  -4.41000032  55.86999893
C     8.27000046  -4.48999977  55.54999924
C     7.81000042  -3.82999992  54.38000107
C     8.67999935  -3.22000003  53.50000000
C    10.08999920  -3.23000002  53.74000168
C    14.19999981  -2.94000006  54.48999786
C    14.85000038  -2.48000002  53.31999969
C    16.21000099  -2.16999984  53.23999786
C     6.38999987  -4.11000013  53.94000244
H     6.07699108  -3.61203122  53.02231216
H    10.67000008  -2.49000001  51.75000000
H    12.25000000  -4.11000013  56.25000000
H     9.94999981  -4.90000010  56.77999878
H     7.59999990  -5.07999992  56.18000031
H     8.30000019  -2.98000002  52.51999664
H    16.59000015  -1.58000004  52.41000366
H     6.35999966  -5.19999981  53.89999771
H     5.73999977  -3.94000006  54.80999756
S    17.59000015  -3.52999973  56.69000244
C    20.27000046  -3.23000002  55.86999893
C    18.92000008  -3.12999988  55.59000015
C    18.45999908  -2.43000007  54.43000031
C    19.43000031  -1.88999999  53.61000061
C    20.81999969  -2.09000015  53.80000305
C    21.78999901  -1.61000001  52.87000275
C    23.13999939  -1.65000010  53.13000107
C    23.54999924  -2.05999994  54.43000031
C    22.65999985  -2.66000009  55.28999710
C    21.28000069  -2.75000000  54.99000168
C    17.01000023  -2.52999997  54.31999969
C    16.38000107  -3.07999992  55.47000122
C    15.00000000  -3.22000003  55.61000061
C    24.97999954  -1.87999988  54.87999725
H    25.28472328  -2.21306944  55.87211990
H    20.46999931  -3.55999994  56.88000107
H    19.12999916  -1.34000003  52.71999741
H    21.42000008  -1.10000002  51.98999786
H    23.77000046  -1.22000003  52.36000061
H    22.95999908  -2.96000004  56.29000092
H    14.65999985  -3.71000004  56.51000214
H    25.13999939  -0.79000002  54.84000397
H    25.62999916  -2.22000003  54.06999969
