96

S    17.35000038   1.19999993  60.00999832
C    20.07999802   1.50999999  59.27000046
C    18.78000069   1.18000007  58.95999908
C    18.38999939   0.83999997  57.62000275
C    19.37999916   0.82000005  56.65000153
C    20.71000099   1.22000003  56.90999985
C    21.68999863   1.12000000  55.87999725
C    22.98999977   1.39999998  56.23000336
C    23.31000137   1.72999990  57.57999802
C    22.39999962   1.99000001  58.57999802
C    21.07000160   1.58999991  58.26000214
C    16.95999908   0.59000003  57.48000336
C    16.23999977   0.94999999  58.64999771
C    14.85999966   1.10000002  58.66000366
C    24.77999878   1.97000003  57.84000015
H    25.10612679   1.58006454  58.80420303
H    20.36000061   2.01999998  60.18000031
H    19.18000031   0.35999998  55.68999863
H    21.42000008   0.57999998  54.97000122
H    23.80000114   1.47000003  55.52000046
H    22.60999870   2.25999999  59.59999847
H    14.28999996   1.29999995  59.56999969
H    25.30999947   1.47000003  57.02000046
H    25.05000114   3.02999997  57.81000137
S    13.86999989   0.39000002  54.84000397
C    11.13999939   0.34000003  55.45000076
C    12.43999958   0.52999997  55.87999725
C    12.76999950   0.90000004  57.22000122
C    11.72000027   1.05999994  58.09999847
C    10.36000061   0.96000004  57.70000076
C     9.30000019   0.97000003  58.64999771
C     8.01000023   0.64999998  58.29999924
C     7.75000000   0.28999999  56.95000076
C     8.73999977   0.27000001  56.00000000
C    10.06999969   0.64000005  56.32999802
C    14.21000004   0.92000002  57.43000031
C    14.93000031   0.63000000  56.24000168
C    16.28999901   0.34999999  56.27999878
C     6.34000015  -0.11000000  56.56000137
H     5.96326256   0.40890241  55.67857742
H    10.88999939  -0.12000000  54.50000000
H    11.77999973   1.19999993  59.18000031
H     9.71000004   1.25000000  59.61999893
H     7.21000004   0.50000000  59.02999878
H     8.64999962  -0.17999999  55.00999832
H    16.81999969   0.08000001  55.35999680
H     5.63000011   0.13000000  57.35000229
H     6.32000017  -1.19999993  56.39999771
S    14.27000046  -1.54999995  51.97999954
C    11.61999893  -2.22000003  52.51999664
C    12.94999981  -2.37000012  52.83000183
C    13.45000076  -3.02999997  54.00000000
C    12.53000069  -3.56999993  54.86999893
C    11.13999939  -3.40000010  54.62999725
C    10.19999981  -4.09000015  55.44000244
C     8.84000015  -3.96000004  55.27999878
C     8.42000008  -3.25000000  54.12000275
C     9.26000023  -2.56999993  53.27000046
C    10.67000008  -2.71000004  53.44999695
C    14.85999966  -2.82999992  54.29000092
C    15.42000008  -2.07999992  53.22999954
C    16.75000000  -1.65999997  53.26000214
C     6.94000006  -3.12000012  53.88999939
H     6.66262960  -3.06310344  52.83741760
H    11.28999901  -1.51999998  51.75000000
H    12.82999992  -4.13000011  55.75000000
H    10.62000084  -4.71000004  56.23000336
H     8.14999962  -4.36999989  56.02000427
H     8.96000004  -2.02999997  52.37999725
H    17.13000107  -0.97999996  52.50000000
H     6.52999973  -4.05999994  54.27999878
H     6.61000013  -2.21000004  54.40999985
S    18.20000076  -3.35000014  56.55000305
C    20.81000137  -2.72000027  55.79000092
C    19.45999908  -2.53999996  55.59999847
C    18.98999977  -1.94999993  54.38000107
C    19.88999939  -1.36999989  53.50000000
C    21.28000069  -1.58000004  53.66000366
C    22.22999954  -0.96000004  52.78999710
C    23.55999947  -0.90000004  53.11000061
C    24.00000000  -1.48000002  54.33000183
C    23.15000153  -2.19000006  55.14999771
C    21.75000000  -2.14000010  54.89999771
C    17.56000137  -2.16000009  54.27999878
C    16.97000122  -2.89999986  55.34999847
C    15.64000034  -3.30000019  55.35999680
C    25.48999977  -1.44999993  54.61999893
H    25.71092033  -1.61390829  55.67471695
H    21.18000031  -3.35999990  56.58000183
H    19.48999977  -0.86000001  52.63000107
H    21.77999878  -0.50000000  51.91999817
H    24.23000145  -0.28000000  52.51999664
H    23.62999916  -2.66999984  56.00000000
H    15.19000053  -3.98000002  56.06999969
H    25.95000076  -0.51999998  54.29000092
H    25.96999931  -2.19000006  53.95999908
