96

S    17.56999969   1.92000008  59.99000168
C    20.28000069   1.94999993  59.29000092
C    18.96000099   1.79000008  58.90999603
C    18.65999985   1.41000009  57.56000137
C    19.67000008   1.14999998  56.65000153
C    21.01000023   1.43999994  56.97999954
C    22.11000061   1.43000007  56.06999969
C    23.42000008   1.67999995  56.42000198
C    23.64000130   2.16000009  57.74000168
C    22.63000107   2.23000002  58.67000198
C    21.30000114   1.86000001  58.31999969
C    17.20999908   1.39999998  57.42000198
C    16.47999954   1.62000000  58.61999893
C    15.10000038   1.52999997  58.74000168
C    25.00999832   2.64999986  58.16999817
H    25.51066399   1.92046189  58.80655670
H    20.36000061   2.37000012  60.28999710
H    19.42000008   0.71999997  55.68999863
H    21.87000084   1.19999993  55.02999878
H    24.13000107   1.64000010  55.59999847
H    22.77000046   2.53999996  59.69999695
H    14.60999966   1.66999996  59.69999695
H    25.55999947   2.82999992  57.23999786
H    24.84000015   3.63999987  58.61000061
S    14.09999943   0.68000007  55.00999832
C    11.31000042   0.52999997  55.68000031
C    12.61999989   0.82999998  55.97999954
C    13.00000000   1.18000007  57.30999756
C    12.03999996   1.38999999  58.27999878
C    10.67000008   1.13000000  58.02999878
C     9.59999943   1.11000001  58.95999908
C     8.34000015   0.59000003  58.72000122
C     7.97999954   0.29999998  57.37999725
C     8.98999977   0.31000000  56.44000244
C    10.32999992   0.71000004  56.70000076
C    14.42999935   1.31999993  57.52999878
C    15.18000031   1.15999997  56.32999802
C    16.55999947   1.15999997  56.19999695
C     6.67999983  -0.38000000  57.02000046
H     6.14669847   0.30973631  56.36581802
H    10.90999985   0.06000000  54.79000092
H    12.30999947   1.58000004  59.31999969
H     9.92999935   1.36999989  59.95999908
H     7.72000027   0.34999999  59.56999969
H     8.78999996  -0.17999999  55.48999786
H    17.14999962   0.86000001  55.34000015
H     6.11999989  -0.68000007  57.90999985
H     6.98000002  -1.35000002  56.58000183
S    18.29000092   2.75000000  53.60000229
C    20.97999954   2.86000013  52.77000046
C    19.65999985   2.57999992  52.49000168
C    19.26000023   1.99000001  51.25000000
C    20.25000000   1.67999995  50.34000015
C    21.57999992   2.13000011  50.50000000
C    22.60999870   1.75999999  49.59000015
C    23.94000053   2.02999997  49.79999924
C    24.28999901   2.71000004  51.00999832
C    23.35000038   2.96000004  51.97000122
C    21.97000122   2.66999984  51.77000046
C    17.80999947   1.81999993  51.17000198
C    17.13999939   2.31999993  52.30999756
C    15.76000023   2.21000004  52.41000366
C    25.73999786   2.96000004  51.35000229
H    26.02499199   2.41139078  52.24772644
H    21.17000198   3.28000021  53.75000000
H    19.97999954   1.04999995  49.48999786
H    22.43000031   1.08000004  48.75999832
H    24.71999931   1.71000004  49.12000275
H    23.57000160   3.38999987  52.95000076
H    15.21999931   2.50999975  53.29999924
H    26.31000137   2.44000006  50.56999969
H    25.95999908   4.03999996  51.42000198
S    14.63000107   0.90000004  48.81000137
C    11.97999954   0.65999997  49.61000061
C    13.23999977   1.13999999  49.87999725
C    13.53999996   1.62000000  51.19999695
C    12.51999950   1.87999988  52.09999847
C    11.18000031   1.56000006  51.76000214
C    10.13000011   1.80000007  52.69000244
C     8.80999947   1.51999998  52.43000031
C     8.56999969   0.79000002  51.24000168
C     9.56999969   0.48999998  50.34000015
C    10.93000031   0.86000001  50.52999878
C    14.98999977   1.69000006  51.36000061
C    15.67000008   1.30999994  50.18000031
C    17.05999947   1.31999993  50.10000229
C     7.11999989   0.48000002  50.97999954
H     6.82182693   0.81367028  49.98608780
H    11.87000084   0.03000000  48.72000122
H    12.64000034   2.50999975  52.97000122
H    10.39000034   2.23000002  53.64999771
H     7.97999954   1.79000008  53.09000015
H     9.26999950  -0.07000000  49.45000076
H    17.57999992   0.97999996  49.20000076
H     6.50000000   0.93000001  51.77000046
H     7.04999971  -0.62000000  50.98999786
