96

S    18.15000153   2.24000001  60.04000092
C    20.85000038   2.28999996  59.20999908
C    19.55000114   1.87999988  59.01000214
C    19.12999916   1.19999993  57.81999969
C    20.15999985   0.88999999  56.95000076
C    21.47999954   1.39999998  57.02999878
C    22.50000000   1.25000000  56.04000092
C    23.82999802   1.50999999  56.27999878
C    24.15999985   2.23000002  57.47000122
C    23.18000031   2.59999990  58.36000061
C    21.86000061   2.09999990  58.22000122
C    17.69000053   1.08999991  57.65999603
C    17.04000092   1.58999991  58.81999969
C    15.65999985   1.65000010  58.77999878
C    25.62000084   2.57999992  57.67000198
H    25.99014282   1.98207760  58.50281906
H    21.07999992   2.92000008  60.06000137
H    20.00999832   0.32000002  56.04000092
H    22.18000031   0.69999999  55.15999603
H    24.63000107   1.52999997  55.54999924
H    23.38999939   3.22000003  59.22999954
H    15.24000072   2.11999989  59.65999985
H    26.21999931   2.36000013  56.77000046
H    25.59999847   3.65000010  57.90999985
S    14.44000053   0.09999999  55.34000015
C    11.79999924   0.07000000  56.14999771
C    13.09000015   0.46999997  56.43000031
C    13.45000076   1.08999991  57.67000198
C    12.43999958   1.41000009  58.55999756
C    11.10000038   1.00000000  58.34000015
C    10.01000023   1.25000000  59.22000122
C     8.71000004   0.83999997  59.02000046
C     8.43000031   0.17000002  57.80000305
C     9.43000031  -0.05000000  56.88999939
C    10.80000019   0.28000000  57.12999725
C    14.88999939   1.24000001  57.67000198
C    15.57999992   0.71000004  56.55000305
C    16.97000122   0.56999999  56.58000183
C     7.03000021  -0.35999998  57.56000137
H     6.59650660   0.33643225  56.84225082
H    11.47999954  -0.29999998  55.18000031
H    12.88000011   1.87000012  59.43999863
H    10.29999924   1.58999991  60.20999908
H     7.96000004   0.97000003  59.79999924
H     9.26999950  -0.59999996  55.97000122
H    17.54999924   0.09000000  55.79999924
H     6.47000027  -0.59000003  58.47000122
H     7.22000027  -1.34000003  57.09999847
S    18.20000076   2.50000000  53.82999802
C    20.89999962   2.50000000  53.00000000
C    19.59000015   2.14000010  52.78999710
C    19.25000000   1.43000007  51.59000015
C    20.23999977   1.13999999  50.65999985
C    21.56999969   1.59999990  50.79000092
C    22.56999969   1.65999997  49.78000259
C    23.78999901   2.23000002  50.00999832
C    24.14999962   2.75999999  51.27999878
C    23.18000031   2.82999992  52.25000000
C    21.90000153   2.27999997  52.02000046
C    17.80999947   1.31999993  51.44000244
C    17.14999962   1.74000001  52.62000275
C    15.76000023   1.81999993  52.70000076
C    25.58000183   3.12000012  51.63000107
H    25.99184227   2.48093390  52.41107941
H    21.19999886   2.96999979  53.94000244
H    19.95000076   0.81000000  49.66999817
H    22.32999992   1.22000003  48.81000137
H    24.53000069   2.04999995  49.22999954
H    23.47999954   3.37000012  53.15000153
H    15.29000092   2.10999990  53.62999725
H    26.14999962   3.17999983  50.70000076
H    25.55000114   4.15000010  51.98999786
S    14.52000046   0.67000002  49.12000275
C    11.84000015   0.48999998  49.91000366
C    13.12000084   0.93999994  50.15999603
C    13.50000000   1.36999989  51.47999573
C    12.55000019   1.50000000  52.47000122
C    11.18999958   1.22000003  52.16999817
C    10.19999981   1.28999996  53.18999863
C     8.86999989   1.00000000  53.00000000
C     8.53999996   0.50999999  51.70999908
C     9.48000050   0.28000000  50.72999954
C    10.81999969   0.73000002  50.86999893
C    14.93999958   1.47000003  51.60999680
C    15.62999916   1.05999994  50.44000244
C    17.02000046   0.97999996  50.33000183
C     7.11999989   0.09999999  51.37000275
H     6.72223425   0.68244338  50.53895569
H    11.64000034  -0.19000000  49.09000015
H    12.90999985   1.75000000  53.47000122
H    10.71000004   1.44999993  54.13999939
H     8.15999985   1.25000000  53.77999878
H     9.26000023  -0.28999999  49.82999802
H    17.38999939   0.52999997  49.41999817
H     6.51999998   0.14999999  52.28000259
H     7.00999975  -0.94999999  51.06999969
