96

S    17.18000031   1.57000005  60.13999939
C    19.93999863   1.63000000  59.55999756
C    18.63999939   1.43999994  59.13999939
C    18.32999992   1.12000000  57.77999878
C    19.32999992   0.93000001  56.84000015
C    20.65999985   1.19999993  57.25000000
C    21.70999908   1.16999996  56.29000092
C    23.01000214   1.47000003  56.62000275
C    23.32999992   1.84000003  57.95000076
C    22.32999992   1.89999998  58.89999771
C    20.98999977   1.52999997  58.61000061
C    16.88999939   1.13999999  57.56999969
C    16.10999870   1.35000002  58.74000168
C    14.72000027   1.33000004  58.80000305
C    24.77999878   2.11999989  58.27000046
H    25.17956924   1.40648317  58.99065018
H    20.09000015   1.98000002  60.58000183
H    19.17000008   0.78000003  55.77999878
H    21.42999840   0.96000004  55.26000214
H    23.80000114   1.42000008  55.87999725
H    22.62000084   2.14000010  59.92000198
H    14.19000053   1.31999993  59.73999786
H    25.27000046   2.17999983  57.29000092
H    24.86999893   3.12000012  58.70999908
S    13.85000038   0.56000000  54.97000122
C    11.18000031   0.02000000  55.56999969
C    12.43000031   0.41000003  56.00999832
C    12.58999920   0.88000000  57.36000061
C    11.54999924   0.75999999  58.25000000
C    10.25000000   0.41000003  57.81000137
C     9.19999981   0.44000000  58.76999664
C     7.95000029   0.13000000  58.29000092
C     7.72000027  -0.22000000  56.93999863
C     8.73999977  -0.32000002  56.03000259
C    10.06999969   0.00000000  56.44000244
C    13.99000072   1.18000007  57.61000061
C    14.75000000   1.00999999  56.43000031
C    16.13999939   0.99000001  56.39999771
C     6.32000017  -0.59000003  56.51000214
H     5.87079287  -0.06235957  55.66862869
H    11.05999947  -0.16000001  54.50000000
H    11.54000092   1.08999991  59.29000092
H     9.46000004   0.69000000  59.79999924
H     7.04999971   0.37000000  58.85000229
H     8.64999962  -0.59999996  54.98000336
H    16.56999969   0.68000007  55.45000076
H     5.75000000  -0.38000000  57.42000198
H     6.17000008  -1.65999997  56.30000305
S    14.26000023  -1.76999998  52.21000290
C    11.56000042  -2.37000012  52.84000015
C    12.89999962  -2.38000011  53.16999817
C    13.43999958  -3.08999991  54.29000092
C    12.51999950  -3.61000013  55.18000031
C    11.13000011  -3.56999993  54.89999771
C    10.19000053  -4.19999981  55.77000046
C     8.84000015  -4.25000000  55.52000046
C     8.34000015  -3.70000005  54.31000137
C     9.22000027  -3.12000012  53.43000031
C    10.60999966  -2.99000001  53.68999863
C    14.88000011  -2.99000001  54.45000076
C    15.48999977  -2.33999991  53.34999847
C    16.80999947  -1.90999997  53.34999847
C     6.86999989  -3.79999995  53.97999573
H     6.53389740  -3.37093282  53.03604889
H    11.23999977  -2.01999998  51.86000061
H    12.92000008  -4.11000013  56.05999756
H    10.60999966  -4.73000002  56.60999680
H     8.19000053  -4.80999994  56.18000031
H     8.85999966  -2.63000011  52.51999664
H    17.23999977  -1.38000000  52.50000000
H     6.70000029  -4.88999987  54.03999710
H     6.34000015  -3.25000000  54.77000427
S    18.09000015  -3.49000001  56.77000046
C    20.79999924  -2.92000008  56.17000198
C    19.47000122  -2.89000010  55.83000183
C    19.02000046  -2.16999984  54.68000031
C    20.02000046  -1.63000000  53.88999939
C    21.40000153  -1.59999990  54.22999954
C    22.36999893  -1.15999997  53.27999878
C    23.68999863  -1.43999994  53.56999969
C    24.11999893  -2.00999999  54.79000092
C    23.19000053  -2.38999987  55.72999954
C    21.80000114  -2.21000004  55.47000122
C    17.59000015  -2.27999997  54.45999908
C    16.94000053  -2.89999986  55.56000137
C    15.65999985  -3.42999983  55.52999878
C    25.56999969  -2.39999986  55.02999878
H    25.98270798  -1.93748140  55.92657471
H    21.09999847  -3.71000004  56.86000061
H    19.79999924  -1.29999995  52.88000107
H    22.10000038  -0.74000001  52.31999969
H    24.38999939  -1.05999994  52.83000183
H    23.50000000  -3.05000019  56.53999710
H    15.19000053  -3.84999990  56.42000198
H    26.07000160  -2.16000009  54.08000183
H    25.59000015  -3.49000001  55.14999771
