96

S    17.31999969   1.69000006  60.05000305
C    19.93000031   2.11999989  59.27000046
C    18.71000099   1.58000004  58.94000244
C    18.38999939   1.00999999  57.67000198
C    19.40000153   0.88000000  56.73999786
C    20.65000153   1.50000000  56.98999786
C    21.65999985   1.49000001  55.98999786
C    22.90999985   1.97000003  56.29000092
C    23.18000031   2.56000018  57.55000305
C    22.20999908   2.68000007  58.53000259
C    20.93000031   2.11999989  58.26000214
C    16.94000053   0.94999999  57.50999832
C    16.25000000   1.19999993  58.73000336
C    14.86999989   1.04999995  58.85000229
C    24.63000107   2.82999992  57.85999680
H    24.92872620   2.48148823  58.84863281
H    19.97999954   2.73000002  60.17000198
H    19.22999954   0.76999998  55.66999817
H    21.44000053   1.03999996  55.02999878
H    23.69999886   1.80000007  55.56000137
H    22.42000198   3.07999992  59.51000214
H    14.35999966   1.26999998  59.78000259
H    25.19000053   2.24000001  57.11999893
H    24.99000168   3.84999990  57.67000198
S    13.73000050   0.12000000  55.15999603
C    11.06999969  -0.24000001  55.90999985
C    12.35000038   0.12000000  56.26999664
C    12.71999931   0.67000002  57.54000092
C    11.72999954   0.87000000  58.48999786
C    10.40999985   0.46999997  58.16999817
C     9.34000015   0.57999998  59.10999680
C     8.05999947   0.19000000  58.81999969
C     7.69999981  -0.34000003  57.55000305
C     8.71999931  -0.46000001  56.63000107
C    10.06999969  -0.12000000  56.90999985
C    14.17000008   0.76999998  57.67000198
C    14.85999966   0.59999996  56.44000244
C    16.23999977   0.71000004  56.32999802
C     6.24000025  -0.51999998  57.21000290
H     5.94716978   0.11565578  56.37436295
H    10.90999985  -0.71000004  54.93999863
H    11.96000004   1.28999996  59.47000122
H     9.56999969   1.07000005  60.05000305
H     7.28999996   0.35999998  59.56999969
H     8.42000008  -0.67000002  55.59999847
H    16.76000023   0.57999998  55.38000107
H     5.65999985  -0.27000001  58.11000061
H     5.98000002  -1.58999991  57.15000153
S    14.30999947  -1.72999990  52.15999985
C    11.69999981  -2.49000001  52.70000076
C    13.01000023  -2.49000001  53.11000061
C    13.59000015  -3.09999990  54.26000214
C    12.65999985  -3.72000003  55.08999634
C    11.26999950  -3.61000013  54.81999969
C    10.32999992  -4.19999981  55.70000076
C     8.98999977  -4.26999998  55.40999985
C     8.52000046  -3.77999997  54.15999985
C     9.36999989  -3.12000012  53.29999924
C    10.76000023  -3.05000019  53.60000229
C    15.03000069  -2.92000008  54.38000107
C    15.57999992  -2.13000011  53.34000015
C    16.87999916  -1.64000010  53.27999878
C     7.13999987  -4.17000008  53.69999695
H     6.77748632  -3.56581020  52.86834717
H    11.30000019  -2.21000004  51.72999954
H    12.98999977  -4.39000034  55.86999893
H    10.67000008  -4.50000000  56.69000244
H     8.30000019  -4.67000008  56.16000366
H     9.15000057  -2.82999992  52.28000259
H    17.13999939  -1.07000005  52.38999939
H     7.05999947  -5.23999977  53.46000290
H     6.48999977  -3.91999984  54.55999756
S    18.44000053  -3.14000010  56.58000183
C    21.02000046  -2.23000002  56.03000259
C    19.71999931  -2.39999986  55.59999847
C    19.20999908  -1.77999997  54.40999985
C    20.07999802  -1.15999997  53.54000092
C    21.45999908  -1.16999996  53.88000107
C    22.42000198  -0.67000002  52.95000076
C    23.75999832  -0.56999999  53.22000122
C    24.25000000  -1.04999995  54.47000122
C    23.36000061  -1.62000000  55.35999680
C    21.96000099  -1.65999997  55.13999939
C    17.77000046  -1.97000003  54.29999924
C    17.20999908  -2.70000005  55.38000107
C    15.93999958  -3.25999999  55.38999939
C    25.65000153  -0.71000004  54.91000366
H    26.01958466  -1.42073739  55.64916611
H    21.38999939  -2.87999988  56.81000137
H    19.70000076  -0.71000004  52.63000107
H    22.01999855  -0.13000000  52.09999847
H    24.40999985  -0.11000000  52.48000336
H    23.77000046  -1.93000007  56.31999969
H    15.60999966  -3.93000007  56.18000031
H    25.65000153   0.34000003  55.21999741
H    26.35000038  -0.64999998  54.06000137
