96

S    17.43000031   1.90999997  59.85000229
C    20.23999977   1.77999997  59.38999939
C    18.95000076   1.50999999  59.01000214
C    18.63000107   0.88999999  57.76000214
C    19.67000008   0.79999995  56.84999847
C    21.02999878   0.85000002  57.21000290
C    22.11999893   0.75000000  56.30000305
C    23.40999985   1.08999991  56.65000153
C    23.71000099   1.38999999  58.00000000
C    22.65999985   1.58999991  58.87000275
C    21.30000114   1.38999999  58.52000427
C    17.20999908   0.71000004  57.54000092
C    16.39999962   1.21000004  58.59000397
C    15.01000023   1.29999995  58.55999756
C    25.07999802   1.87000012  58.41999817
H    25.45635414   1.38713145  59.32182693
H    20.43999863   2.26999998  60.34000015
H    19.34000015   0.78000003  55.80999756
H    21.97999954   0.65999997  55.22999573
H    24.27999878   1.15999997  56.00000000
H    22.67999840   1.88999999  59.92000198
H    14.42999935   1.70000005  59.38999939
H    25.76999855   1.53999996  57.62000275
H    25.03999901   2.96000004  58.50999832
S    14.22999954  -0.11000000  54.92000198
C    11.46999931  -0.08000001  55.44000244
C    12.75000000   0.29999998  55.80999756
C    12.96000004   0.88999999  57.09000015
C    11.84999943   1.10000002  57.88000107
C    10.52000046   0.69999999  57.60000229
C     9.35999966   0.82000005  58.41999817
C     8.11999989   0.34999999  58.08000183
C     8.00000000  -0.27000001  56.81000137
C     9.09000015  -0.46000001  55.97999954
C    10.38000011   0.03000000  56.33999634
C    14.39000034   0.99000001  57.35000229
C    15.19000053   0.43000001  56.31000137
C    16.55999947   0.25000000  56.38000107
C     6.69000053  -0.82999998  56.31999969
H     5.94927549  -0.07503057  56.05646896
H    11.30000019  -0.56000000  54.47999954
H    11.97999954   1.28000009  58.95000076
H     9.46000004   1.23000002  59.43000031
H     7.26000023   0.69000000  58.66000366
H     8.97000027  -0.93999994  55.01999664
H    17.11000061   0.06000000  55.45999908
H     6.30999994  -1.48000002  57.11999893
H     6.84999990  -1.44999993  55.44000244
S    17.90999985   2.26999998  53.77999878
C    20.58000183   2.36000013  53.11999893
C    19.31999969   2.00000000  52.72999573
C    18.96999931   1.61000001  51.38999939
C    20.00999832   1.44999993  50.48999786
C    21.34000015   1.84000003  50.79999924
C    22.43999863   1.75000000  49.89999771
C    23.72999954   1.98000002  50.33000183
C    23.98999977   2.38000011  51.65999985
C    22.93999863   2.59999990  52.52999878
C    21.61000061   2.25000000  52.15000153
C    17.53999901   1.39999998  51.27999878
C    16.84000015   1.77999997  52.44999695
C    15.44999981   1.81999993  52.48000336
C    25.36999893   2.89000010  51.97999954
H    25.69074631   2.71180773  53.00638580
H    20.71000099   2.92000008  54.03999710
H    19.84000015   1.05999994  49.50000000
H    22.27000046   1.56000006  48.83999634
H    24.56000137   1.79000008  49.65999985
H    23.01000214   3.17999983  53.43999863
H    14.96000099   2.19000006  53.36999893
H    26.11999893   2.38000011  51.37000275
H    25.40999985   3.95000005  51.66999817
S    14.35999966   0.79000002  48.75999832
C    11.68000031   0.71999997  49.43000031
C    12.97000027   0.92000002  49.85000229
C    13.31999969   1.31999993  51.18000031
C    12.32999992   1.51999998  52.11999893
C    11.00999928   1.15999997  51.77000046
C     9.94999981   1.28999996  52.70999908
C     8.64999962   1.05999994  52.31999969
C     8.30999947   0.59000003  51.02000427
C     9.31999969   0.48999998  50.08999634
C    10.67000008   0.78000003  50.41999817
C    14.75999928   1.49000001  51.30000305
C    15.44999981   1.13000000  50.12000275
C    16.84000015   1.10000002  50.10000229
C     6.91999960   0.09000000  50.68999863
H     6.41933537   0.72655886  49.96046066
H    11.39999962   0.35999998  48.43999863
H    12.55000019   1.80999994  53.15000153
H    10.25000000   1.42000008  53.75000000
H     7.88999987   1.02999997  53.09000015
H     9.15000057   0.05000000  49.10999680
H    17.40999985   0.97999996  49.18000031
H     6.34000015  -0.14999999  51.59000015
H     6.93000031  -0.93000001  50.28999710
