96

S    17.57999992   1.59999990  59.98000336
C    20.28000069   1.80000007  59.41999817
C    19.03000069   1.46000004  58.95999908
C    18.72999954   0.93999994  57.65999603
C    19.79999924   0.69000000  56.81999969
C    21.11999893   0.90999997  57.29000092
C    22.27000046   0.63000000  56.50000000
C    23.52999878   1.02999997  56.84999847
C    23.69999886   1.88999999  57.95999908
C    22.67999840   1.94999993  58.88999939
C    21.38999939   1.44999993  58.60000229
C    17.30999947   0.69000000  57.45999908
C    16.57999992   1.00999999  58.63999939
C    15.19000053   1.08000004  58.61999893
C    25.05000114   2.50999975  58.22999954
H    25.63078117   1.88672233  58.90994263
H    20.29999924   2.52999997  60.21999741
H    19.68000031   0.32000002  55.79999924
H    22.13000107   0.14000000  55.54000092
H    24.40000153   0.88999999  56.19999695
H    22.78000069   2.32999992  59.91000366
H    14.78999996   1.48000002  59.54000092
H    25.53999901   2.69000006  57.25999832
H    24.96000099   3.51000023  58.66000366
S    14.04000092  -0.16000001  55.07999802
C    11.28000069   0.09000000  55.73999786
C    12.61000061   0.22000000  56.05999756
C    13.00000000   0.69000000  57.36000061
C    12.02999973   0.97000003  58.29999924
C    10.67000008   0.71999997  57.98999786
C     9.61999989   0.88000000  58.94000244
C     8.30999947   0.63000000  58.62999725
C     7.92000008   0.09000000  57.37999725
C     8.89999962  -0.06000000  56.42000198
C    10.25000000   0.25999999  56.69000244
C    14.45000076   0.71000004  57.49000168
C    15.19999981   0.34000003  56.33999634
C    16.59000015   0.32000002  56.31999969
C     6.51999998  -0.43000001  57.14000320
H     5.91101646   0.15773994  56.45312500
H    11.06999969  -0.31000000  54.75000000
H    12.38000011   1.36000013  59.25000000
H     9.90999985   1.08000004  59.97000122
H     7.57999992   0.82999998  59.40999985
H     8.55000019  -0.59999996  55.54000092
H    17.29999924   0.23000000  55.51000214
H     5.97000027  -0.39999998  58.08000183
H     6.58999968  -1.47000003  56.81000137
S    18.15000153   2.11999989  54.00000000
C    20.85000038   1.72999990  53.36000061
C    19.52999878   1.67999995  52.97999954
C    19.13999939   1.46000004  51.62000275
C    20.17000008   1.28999996  50.70000076
C    21.54000092   1.50000000  50.98999786
C    22.56999969   1.74000001  50.04000092
C    23.87000084   1.98000002  50.41999817
C    24.18999863   2.00000000  51.79999924
C    23.21000099   1.92000008  52.77000046
C    21.87000084   1.62000000  52.38999939
C    17.70000076   1.38000000  51.46999741
C    17.02999878   1.72000003  52.68000031
C    15.65000057   1.85000002  52.76000214
C    25.59000015   2.26999998  52.31999969
H    26.07607841   1.46940184  52.87755966
H    21.07999992   2.10999990  54.34999847
H    19.88000107   1.13000000  49.66999817
H    22.29999924   1.65000010  48.99000168
H    24.64999962   2.07999992  49.66999817
H    23.34000015   2.29999995  53.77999878
H    15.03000069   2.16999984  53.59000397
H    26.28000069   2.59999990  51.53999710
H    25.52999878   3.19000006  52.93000031
S    14.59000015   0.76999998  49.01000214
C    11.89000034   0.74000001  49.59999847
C    13.17000008   1.02999997  50.02999878
C    13.53999996   1.43000007  51.35000229
C    12.53000069   1.49000001  52.29000092
C    11.19999981   1.31999993  51.83000183
C    10.14999962   1.36999989  52.77999878
C     8.82999992   1.18000007  52.43000031
C     8.51000023   0.67000002  51.13999939
C     9.50000000   0.62000000  50.19000244
C    10.81999969   1.08000004  50.47000122
C    14.98000050   1.57000005  51.56000137
C    15.64000034   1.19000006  50.37000275
C    17.02000046   0.99000001  50.31000137
C     7.09000015   0.22000000  50.86999893
H     6.69790983   0.66912127  49.95750046
H    11.73999977   0.09999999  48.74000168
H    12.81000042   1.72000003  53.31999969
H    10.38000011   1.66999996  53.80000305
H     8.03999996   1.43000007  53.13000107
H     9.35999966   0.16000001  49.22000122
H    17.61000061   0.67000002  49.45999908
H     6.50000000   0.39999998  51.77999878
H     7.05999947  -0.86000001  50.65999985
