96

S    17.50000000   1.71000004  59.91000366
C    20.17999840   2.07999992  59.22999954
C    18.92000008   1.67999995  58.83999634
C    18.53999901   1.26999998  57.52999878
C    19.56999969   1.19999993  56.60999680
C    20.88000107   1.65000010  56.90999985
C    21.88999939   1.69000006  55.90000153
C    23.21000099   1.95999992  56.17000198
C    23.54000092   2.28999996  57.50999832
C    22.56999969   2.37000012  58.48999786
C    21.19999886   2.04999995  58.25000000
C    17.10000038   1.10000002  57.36999893
C    16.39999962   1.35000002  58.56999969
C    15.01000023   1.43999994  58.61999893
C    24.99000168   2.59000015  57.80000305
H    25.47460938   1.84170353  58.42714310
H    20.36999893   2.44000006  60.24000168
H    19.37999916   0.82999998  55.61000061
H    21.63000107   1.43999994  54.87999725
H    23.92000008   1.82999992  55.35999680
H    22.86999893   2.63999987  59.50000000
H    14.52000046   1.58999991  59.58000183
H    25.46999931   2.57999992  56.81000137
H    25.13000107   3.55999994  58.29999924
S    13.89000034   0.32000002  54.97000122
C    11.26000023  -0.17000002  55.72999954
C    12.48999977   0.34999999  56.05999756
C    12.82999992   0.82999998  57.36999893
C    11.76000023   0.88999999  58.23999786
C    10.43000031   0.55000001  57.88999939
C     9.34000015   0.69000000  58.80000305
C     8.09000015   0.24000001  58.50000000
C     7.79999971  -0.24000001  57.18999863
C     8.80999947  -0.28000000  56.25000000
C    10.14000034   0.13000000  56.55000305
C    14.25000000   1.13000000  57.49000168
C    14.96000099   0.83999997  56.30000305
C    16.35000038   0.79000002  56.23000336
C     6.42000008  -0.75000000  56.83000183
H     6.03494072  -0.14388794  56.00996780
H    11.05999947  -0.64999998  54.78000259
H    11.89000034   1.19999993  59.27000046
H     9.68000031   1.08999991  59.75999832
H     7.32999992   0.25000000  59.27999878
H     8.60999966  -0.65999997  55.25000000
H    16.84000015   0.55000001  55.28999710
H     5.82999992  -0.68000007  57.75000000
H     6.42000008  -1.84000003  56.73999786
S    14.32000065  -1.75000000  52.25999832
C    11.76000023  -2.63999987  52.91999817
C    13.09999943  -2.63999987  53.20000076
C    13.63000011  -3.07000017  54.45000076
C    12.84999943  -3.72000003  55.38999939
C    11.46000004  -3.74000025  55.13000107
C    10.54999924  -4.21000004  56.11999893
C     9.19999981  -4.07000017  55.94999695
C     8.67999935  -3.60000014  54.71000290
C     9.51000023  -3.05000019  53.75999832
C    10.92000008  -3.14000010  53.94000244
C    15.03000069  -2.73000002  54.65000153
C    15.54999924  -2.06999993  53.50999832
C    16.87000084  -1.64000010  53.43999863
C     7.26000023  -3.97000027  54.34000015
H     6.89208031  -3.47472310  53.44142532
H    11.28000069  -2.46000004  51.95000076
H    13.21000004  -4.09999990  56.35000229
H    11.05999947  -4.67999983  56.95999908
H     8.65999985  -4.71000004  56.63999939
H     9.22999954  -2.63999987  52.80000305
H    17.15999985  -1.11000001  52.54000092
H     7.13000011  -5.05000019  54.34999847
H     6.51999998  -3.73000002  55.12000275
S    18.46999931  -2.75999999  56.86999893
C    21.07999992  -2.47000003  55.86000061
C    19.71999931  -2.28999996  55.70000076
C    19.12999916  -1.76999998  54.51000214
C    19.93999863  -1.08000004  53.62999725
C    21.34000015  -1.15999997  53.80000305
C    22.22999954  -0.57999998  52.84999847
C    23.59000015  -0.46000001  53.04999924
C    24.13999939  -1.00000000  54.25000000
C    23.34000015  -1.69000006  55.13000107
C    21.93000031  -1.77999997  54.95999908
C    17.68000031  -1.94999993  54.52999878
C    17.13999939  -2.52999997  55.70999908
C    15.82999992  -2.98000002  55.77999878
C    25.52999878  -0.59000003  54.68000031
H    25.80774307  -1.21670103  55.52746964
H    21.54999924  -3.08999991  56.60999680
H    19.52000046  -0.51999998  52.78999710
H    21.78999901  -0.08000001  51.98999786
H    24.13999939   0.32999998  52.56000137
H    23.72999954  -1.86000001  56.12999725
H    15.48999977  -3.49000001  56.66999817
H    25.43000031   0.43000001  55.06999969
H    26.07000160  -0.69999999  53.72000122
