96

S    17.05000114   1.72000003  60.12000275
C    19.70000076   2.16000009  59.26000214
C    18.42000008   1.72999990  58.99000168
C    18.01000023   1.19000006  57.72999573
C    19.01000023   0.90999997  56.81000137
C    20.30999947   1.43999994  56.97999954
C    21.38999939   1.28999996  56.06999969
C    22.70999908   1.56000006  56.30000305
C    23.03999901   2.05999994  57.58999634
C    22.06999969   2.16000009  58.55999756
C    20.69999886   1.90999997  58.29000092
C    16.56999969   1.03999996  57.56999969
C    15.93000031   1.31999993  58.80000305
C    14.53999996   1.28000009  58.81999969
C    24.50000000   2.39999986  57.84000015
H    25.02531815   1.69010973  58.47890091
H    19.88000107   2.49000001  60.27999878
H    18.81000137   0.28999999  55.93999863
H    21.17000198   0.97999996  55.05000305
H    23.38000107   1.46000004  55.45000076
H    22.20000076   2.73000002  59.47999954
H    14.11000061   1.53999996  59.79000092
H    24.94999886   2.42000008  56.84999847
H    24.56000137   3.42999983  58.20999908
S    13.38999939   0.20999999  55.19000244
C    10.67000008   0.06000000  55.83000183
C    11.96000004   0.35999998  56.23000336
C    12.31999969   0.79000002  57.54000092
C    11.32999992   0.88000000  58.50999832
C    10.01000023   0.48000002  58.18000031
C     8.93999958   0.50000000  59.10999680
C     7.64999962   0.11000000  58.81000137
C     7.31999969  -0.22000000  57.47000122
C     8.30999947  -0.17000002  56.52999878
C     9.65999985   0.19999999  56.81000137
C    13.76000023   0.88999999  57.71999741
C    14.47999954   0.64000005  56.52000046
C    15.86999989   0.57999998  56.45000076
C     5.89999962  -0.59000003  57.09999847
H     5.63668585  -0.25552040  56.09656143
H    10.47999954  -0.54000002  54.93999863
H    11.59999943   1.36999989  59.43999863
H     9.19000053   0.75999999  60.13000107
H     6.86999989   0.01000000  59.55999756
H     8.17000008  -0.63000000  55.54999924
H    16.31999969   0.13000000  55.58000183
H     5.33999968  -0.13000000  57.91999817
H     5.82000017  -1.67999995  57.18000031
S    17.67000008   2.33999991  53.61000061
C    20.35000038   2.79999995  52.91999817
C    19.09000015   2.38000011  52.55000305
C    18.75000000   1.97000003  51.23000336
C    19.73999977   2.02999997  50.27000046
C    21.07999992   2.36000013  50.56999969
C    22.13999939   2.32999992  49.61999893
C    23.43000031   2.69000006  49.95999908
C    23.71999931   3.12000012  51.27999878
C    22.69000053   3.19999981  52.18999863
C    21.35999870   2.75999999  51.93000031
C    17.31999969   1.80000007  51.02000427
C    16.60000038   2.06999993  52.21000290
C    15.22999954   1.86000001  52.29000092
C    25.15999985   3.33999991  51.70000076
H    25.68041039   2.39898443  51.87822342
H    20.48000145   3.22000003  53.92000198
H    19.57999992   1.72000003  49.23999786
H    21.90000153   2.13000011  48.57999802
H    24.21999931   2.75000000  49.22000122
H    22.93000031   3.38999987  53.22999954
H    14.65999985   1.89999998  53.20999908
H    25.72999954   3.94000006  50.97999954
H    25.13999939   3.89999986  52.63999939
S    14.22999954   0.88999999  48.52000427
C    11.51999950   0.56000000  49.22000122
C    12.81000042   0.87000000  49.59000015
C    13.14000034   1.26999998  50.91999817
C    12.11999989   1.39999998  51.84999847
C    10.80999947   0.97000003  51.56999969
C     9.73999977   0.90999997  52.51999664
C     8.51000023   0.38000000  52.21000290
C     8.28999996  -0.07000000  50.87999725
C     9.22000027   0.09999999  49.87999725
C    10.52999973   0.52999997  50.22999573
C    14.55999947   1.51999998  51.11000061
C    15.26000023   1.31999993  49.89999771
C    16.64999962   1.39999998  49.86000061
C     6.89000034  -0.39999998  50.41999817
H     6.44872427   0.29038286  49.70114899
H    11.28000069   0.19000000  48.22000122
H    12.30999947   1.75000000  52.87000275
H     9.73999977   1.19000006  53.56999969
H     7.69000006   0.29999998  52.91999817
H     8.96000004  -0.02000000  48.83999634
H    17.13999939   1.19000006  48.92000198
H     6.25000000  -0.41999999  51.31000137
H     6.86999989  -1.36999989  49.92000198
