96

S    17.50000000   2.09000015  59.98000336
C    20.20000076   2.25000000  59.27999878
C    18.94000053   1.77999997  58.99000168
C    18.59000015   1.13000000  57.77000046
C    19.61000061   0.93000001  56.84999847
C    20.93000031   1.35000002  57.11999893
C    21.98999786   1.15999997  56.18999863
C    23.25000000   1.62000000  56.47999573
C    23.61999893   2.10999990  57.76000214
C    22.60000038   2.38000011  58.63999939
C    21.25999832   2.00999999  58.36000061
C    17.14999962   0.93000001  57.67000198
C    16.39000130   1.46000004  58.75000000
C    15.01000023   1.64000010  58.75999832
C    25.03000069   2.40999985  58.20999908
H    25.32794571   1.77863908  59.04708481
H    20.46999931   2.77999997  60.19000244
H    19.47999954   0.46999997  55.87999725
H    21.76000214   0.68000007  55.24000168
H    24.02000046   1.50999999  55.72000122
H    22.77000046   2.86000013  59.59999847
H    14.37999916   2.10999990  59.51000214
H    25.75000000   2.29999995  57.38999939
H    25.12000084   3.42000008  58.62999725
S    13.96999931   0.25000000  55.22999573
C    11.21999931   0.06000000  55.89000320
C    12.51000023   0.41999999  56.22000122
C    12.84999943   0.97999996  57.49000168
C    11.85999966   1.21000004  58.43000031
C    10.52000046   0.82999998  58.18999863
C     9.39999962   1.02999997  59.03999710
C     8.11999989   0.62000000  58.76999664
C     7.92999983   0.01000000  57.50000000
C     8.93000031  -0.19999999  56.59000015
C    10.26000023   0.20999999  56.91999817
C    14.28999996   1.13999999  57.67000198
C    15.05000019   0.65999997  56.56999969
C    16.43000031   0.48000002  56.56999969
C     6.50000000  -0.32999998  57.15999985
H     6.15260220   0.42151374  56.45102692
H    11.10000038  -0.32000002  54.87999725
H    12.20999908   1.50999999  59.41999817
H     9.51000023   1.46000004  60.02999878
H     7.34000015   1.00000000  59.43000031
H     8.67999935  -0.75000000  55.68999863
H    17.01000023   0.17000002  55.70000076
H     5.82000017  -0.39999998  58.01000214
H     6.47000027  -1.28000009  56.59999847
S    14.04999924  -1.89999998  52.19999695
C    11.42000008  -2.25999999  52.98999786
C    12.75000000  -2.50999975  53.25000000
C    13.23999977  -3.23000002  54.38000107
C    12.25999928  -3.75999975  55.20999908
C    10.88000107  -3.68000007  54.92000198
C     9.85000038  -4.00999975  55.84999847
C     8.51000023  -3.81000018  55.65999985
C     8.11999989  -3.10999990  54.48999786
C     9.06999969  -2.75999999  53.54999924
C    10.46000004  -2.99000001  53.73000336
C    14.63999939  -2.91000009  54.59999847
C    15.21999931  -2.23000002  53.48999786
C    16.55999947  -1.87999988  53.47999954
C     6.63999987  -2.84999990  54.29000092
H     6.18193436  -3.50131226  53.54564285
H    11.13999939  -1.57000005  52.18999863
H    12.57999992  -4.05999994  56.19999695
H    10.24000072  -4.51999998  56.72999954
H     7.77999973  -4.34999990  56.25999832
H     8.80999947  -2.13000011  52.70000076
H    16.98999977  -1.58999991  52.51999664
H     6.12999964  -2.98000002  55.25000000
H     6.53999996  -1.79000008  54.02000046
S    18.01000023  -3.32999992  56.86999893
C    20.66999817  -2.69000006  56.24000168
C    19.32999992  -2.56000018  55.97000122
C    18.81000137  -2.07999992  54.72999954
C    19.70999908  -1.58000004  53.80000305
C    21.09999847  -1.65000010  54.06999969
C    22.01000023  -1.18000007  53.08000183
C    23.36999893  -1.10000002  53.31999969
C    23.81000137  -1.44999993  54.61999893
C    22.98999977  -2.01999998  55.56999969
C    21.61000061  -2.19000006  55.30000305
C    17.35999870  -2.16999984  54.59000015
C    16.77999878  -2.89000010  55.66999817
C    15.42000008  -3.17000008  55.73999786
C    25.27000046  -1.23000002  54.94999695
H    25.49002075  -1.79069269  55.85846710
H    20.94000053  -3.08999991  57.21000290
H    19.45999908  -1.21000004  52.81999969
H    21.64999962  -0.78000003  52.14000320
H    24.01000023  -0.75999999  52.51999664
H    23.36000061  -2.29999995  56.55000305
H    15.01999950  -3.60000014  56.65000153
H    25.55000114  -0.17000002  54.95999908
H    25.84000015  -1.53999996  54.06999969
