96

S    17.65999985   2.02999997  60.06000137
C    20.40999985   1.86000001  59.51000214
C    19.11000061   1.72000003  59.08000183
C    18.68999863   1.21000004  57.81000137
C    19.68000031   0.71000004  56.97999954
C    21.02000046   1.05999994  57.25000000
C    22.01000023   0.96000004  56.23000336
C    23.31000137   1.33000004  56.47999573
C    23.68000031   1.80999994  57.76000214
C    22.72000122   2.09999990  58.69999695
C    21.40000153   1.58999991  58.53000259
C    17.26000023   1.24000001  57.57999802
C    16.54000092   1.54999995  58.76999664
C    15.17000008   1.75999999  58.80000305
C    25.09000015   2.31999993  57.97999954
H    25.50737762   2.02288389  58.94208908
H    20.72999954   2.24000001  60.47999954
H    19.34999847   0.17999999  56.09000397
H    21.68999863   0.71000004  55.21999741
H    24.02000046   1.29999995  55.65999985
H    22.98999977   2.64999986  59.59999847
H    14.60999966   1.90999997  59.72000122
H    25.69999886   1.86000001  57.19999695
H    25.15000153   3.38999987  57.72999573
S    14.09999943   0.54000002  55.12000275
C    11.44000053   0.31000000  55.84000015
C    12.68000031   0.85000002  56.13999939
C    13.05999947   1.28000009  57.44999695
C    12.03999996   1.36000013  58.39000320
C    10.72000027   0.96000004  58.06999969
C     9.73999977   0.90000004  59.09999847
C     8.43999958   0.46999997  58.93000031
C     8.10000038  -0.01000000  57.63999939
C     9.02999973  -0.01000000  56.63000107
C    10.36999893   0.45000002  56.77000046
C    14.48999977   1.49000001  57.60000229
C    15.17000008   1.07000005  56.43000031
C    16.54999924   0.87000000  56.43000031
C     6.69000053  -0.50999999  57.43000031
H     6.22113419  -0.19031894  56.49937057
H    11.25000000  -0.12000000  54.86000061
H    12.32999992   1.70000005  59.38000107
H    10.06000042   1.31999993  60.05000305
H     7.77999973   0.52999997  59.79000092
H     8.84000015  -0.17999999  55.58000183
H    16.95999908   0.34000003  55.58000183
H     6.00000000  -0.14000000  58.20000076
H     6.67999983  -1.61000001  57.44999695
S    18.23999977   2.27999997  53.86000061
C    20.97999954   2.38999987  53.13999939
C    19.64999962   2.25000000  52.78999710
C    19.26000023   2.00999999  51.43000031
C    20.27000046   1.98000002  50.47999954
C    21.64999962   1.97000003  50.77000046
C    22.63999939   1.87000012  49.75000000
C    23.94000053   2.16000009  50.11000061
C    24.30999947   2.43000007  51.45999908
C    23.35000038   2.47000003  52.43999863
C    21.97999954   2.23000002  52.15000153
C    17.85000038   1.69000006  51.25999832
C    17.18000031   1.95999992  52.48000336
C    15.80000019   2.04999995  52.55000305
C    25.73999786   2.80999994  51.77999878
H    26.17349243   2.09225035  52.47643280
H    21.15999985   2.68000007  54.16999817
H    19.88999939   1.86000001  49.47000122
H    22.34999847   1.44999993  48.79000092
H    24.72999954   2.03999996  49.38999939
H    23.64999962   2.80999994  53.43000031
H    15.39999962   2.37000012  53.50999832
H    26.32999802   2.79000020  50.86000061
H    25.79999924   3.84999990  52.09999847
S    14.65000057   1.29999995  48.81999969
C    11.85999966   1.07000005  49.54000092
C    13.19000053   1.31999993  49.81999969
C    13.63000011   1.56000006  51.16000366
C    12.64999962   1.66999996  52.12999725
C    11.26999950   1.49000001  51.88999939
C    10.22999954   1.41000009  52.87000275
C     8.92000008   1.04999995  52.67000198
C     8.53999996   0.93000001  51.31000137
C     9.47000027   1.01999998  50.31000137
C    10.85999966   1.19999993  50.54000092
C    15.06000042   1.72000003  51.40999603
C    15.75000000   1.42000008  50.20999908
C    17.13999939   1.36000013  50.10000229
C     7.07000017   0.79999995  50.97999954
H     6.78497744   1.24178529  50.02517700
H    11.64999962   0.83999997  48.50000000
H    13.02999973   1.85000002  53.13000107
H    10.59999943   1.70000005  53.85000229
H     8.23000050   1.18000007  53.50000000
H     9.11000061   0.82000005  49.29999924
H    17.65999985   1.13999999  49.18000031
H     6.44999981   1.18000007  51.79999924
H     6.84000015  -0.27000001  50.93999863
