96

S    17.32999992   1.71000004  60.31999969
C    19.96999931   2.38000011  59.58000183
C    18.71999931   1.90999997  59.23999786
C    18.38999939   1.52999997  57.88999939
C    19.38999939   1.47000003  56.93000031
C    20.69000053   1.94000006  57.22999954
C    21.77999878   1.92000008  56.31999969
C    23.06999969   2.25000000  56.66999817
C    23.34000015   2.71000004  57.98999786
C    22.30999947   2.72000027  58.89999771
C    20.96999931   2.38000011  58.56999969
C    16.97000122   1.31999993  57.70000076
C    16.26000023   1.51999998  58.90999603
C    14.88000011   1.52999997  58.99000168
C    24.73999977   2.91000009  58.52000427
H    25.11610031   2.25714779  59.30767822
H    20.34000015   2.63000011  60.56999969
H    19.11000061   1.08000004  55.96000290
H    21.57999992   1.54999995  55.31999969
H    23.92000008   2.01999998  56.04000092
H    22.55000114   2.96999979  59.93999863
H    14.27999973   1.90999997  59.81999969
H    25.45000076   2.96999979  57.68000031
H    24.79999924   3.94000006  58.89999771
S    13.78000069   0.78000003  55.22999573
C    11.11999989   0.23000000  55.96000290
C    12.35999966   0.71000004  56.29000092
C    12.71999931   1.08000004  57.63000107
C    11.71000004   1.05999994  58.56999969
C    10.40999985   0.59000003  58.25000000
C     9.43000031   0.59000003  59.27999878
C     8.11999989   0.39999998  58.89999771
C     7.77999973  -0.12000000  57.62000275
C     8.75000000  -0.28999999  56.65999985
C    10.08999920   0.11000000  56.93999863
C    14.15999985   1.18000007  57.84000015
C    14.85999966   1.01999998  56.62000275
C    16.25000000   1.07000005  56.52999878
C     6.35999966  -0.44000000  57.22999954
H     5.99700737   0.17210490  56.40436935
H    10.88999939  -0.09999999  54.94999695
H    11.96000004   1.35000002  59.59000015
H     9.64999962   0.94999999  60.27999878
H     7.40999985   0.51999998  59.72000122
H     8.53999996  -0.85000002  55.76000214
H    16.63999939   1.14999998  55.51000214
H     5.69999981  -0.29999998  58.09999847
H     6.28999996  -1.49000001  56.93999863
S    18.11000061   2.38000011  53.67000198
C    20.72000122   2.84999990  53.01000214
C    19.47000122   2.51999998  52.55000305
C    19.15999985   2.06999993  51.22000122
C    20.20999908   2.02999997  50.31999969
C    21.50000000   2.45000005  50.68999863
C    22.65000153   2.22000003  49.88999939
C    23.90000153   2.50999975  50.38999939
C    24.09000015   3.23000002  51.59999847
C    23.02999878   3.37000012  52.45999908
C    21.73999977   2.94999981  52.02999878
C    17.75000000   1.75999999  51.10000229
C    17.05000114   1.94000006  52.31999969
C    15.65999985   1.98000002  52.30999756
C    25.48999977   3.51000023  52.09999847
H    25.76741791   2.95516706  52.99626923
H    20.86999893   2.93000007  54.09000015
H    19.98999977   1.66999996  49.31000137
H    22.56999969   1.66999996  48.95000076
H    24.80999947   2.25000000  49.87999725
H    23.19999886   3.58999991  53.50000000
H    15.19000053   2.13000011  53.27999878
H    26.18999863   3.25999999  51.30000305
H    25.53999901   4.59999990  52.22000122
S    14.55000019   1.25000000  48.56999969
C    11.80999947   1.10000002  49.26000214
C    13.12000084   1.29999995  49.61999893
C    13.47000027   1.65000010  50.96000290
C    12.46999931   1.82999992  51.90999985
C    11.16000080   1.39999998  51.56999969
C    10.14999962   1.46000004  52.57999802
C     8.84000015   1.15999997  52.29000092
C     8.52000046   0.64999998  51.00999832
C     9.47000027   0.56999999  50.00999832
C    10.81999969   0.94999999  50.25000000
C    14.91000080   1.72000003  51.16000366
C    15.62000084   1.36000013  49.98000336
C    17.01000023   1.34000003  49.98000336
C     7.09000015   0.27000001  50.72999954
H     6.63582468   0.88029814  49.94938278
H    11.64999962   0.65999997  48.27999878
H    12.79999924   2.02999997  52.91999817
H    10.43000031   1.63000000  53.61999893
H     8.11999989   1.38000000  53.06999969
H     9.15000057   0.32000002  49.00000000
H    17.46999931   1.22000003  49.01000214
H     6.51000023   0.37000000  51.65999985
H     7.05999947  -0.79000002  50.45000076
