96

S    16.79000092   1.58000004  60.00000000
C    19.45000076   1.75999999  59.40000153
C    18.22000122   1.33000004  58.97999573
C    17.95999908   0.75000000  57.69000244
C    19.01000023   0.76999998  56.79000092
C    20.34000015   1.00999999  57.21000290
C    21.47000122   0.82000005  56.36000061
C    22.70000076   1.30999994  56.70999908
C    22.93999863   1.90999997  57.97999954
C    21.87000084   1.98000002  58.83999634
C    20.53999901   1.57000005  58.52000427
C    16.52000046   0.65999997  57.50000000
C    15.77000046   1.00999999  58.66000366
C    14.39000034   1.14999998  58.64999771
C    24.33000183   2.24000001  58.46000290
H    24.84303093   1.41345310  58.95165634
H    19.60000038   2.16999984  60.40000153
H    18.84000015   0.46000001  55.76000214
H    21.18999863   0.39000002  55.40000153
H    23.52999878   1.15999997  56.03000259
H    22.06999969   2.31999993  59.86000061
H    13.82999992   1.44999993  59.52999878
H    24.99000168   2.66000009  57.69000244
H    24.25000000   3.02999997  59.22000122
S    13.35000038   0.29999998  54.92000198
C    10.65999985  -0.04000000  55.59000015
C    11.90999985   0.41000003  55.93999863
C    12.25000000   0.85000002  57.25999832
C    11.23999977   1.00999999  58.20000076
C     9.92000008   0.71999997  57.78999710
C     8.78999996   0.88000000  58.64999771
C     7.50000000   0.55000001  58.31999969
C     7.22000027  -0.05000000  57.05999756
C     8.26000023  -0.19000000  56.17000198
C     9.59000015   0.17999999  56.50000000
C    13.68999958   0.97000003  57.44999695
C    14.42000008   0.67000002  56.27999878
C    15.80000019   0.50999999  56.31000137
C     5.86000013  -0.59000003  56.69000244
H     5.41897869  -0.06362003  55.84352493
H    10.52999973  -0.56999999  54.65000153
H    11.47999954   1.36000013  59.20000076
H     8.97000027   1.01999998  59.71000290
H     6.65999985   0.56000000  59.01000214
H     8.17000008  -0.69000000  55.21999741
H    16.34000015   0.41000003  55.37000275
H     5.35000038  -0.63000000  57.65999603
H     5.98999977  -1.64000010  56.39999771
S    13.78999901  -1.94000006  51.88999939
C    11.10999966  -2.44000006  52.48000336
C    12.43000031  -2.52999997  52.85999680
C    12.82999992  -3.07000017  54.12000275
C    11.92000008  -3.63000011  55.00000000
C    10.54999924  -3.37000012  54.72000122
C     9.53999996  -4.00000000  55.50000000
C     8.19999981  -3.89999986  55.20999908
C     7.82000017  -3.12000012  54.09000015
C     8.76999950  -2.56000018  53.26000214
C    10.15999985  -2.77999997  53.47000122
C    14.26000023  -2.91000009  54.36999893
C    14.84000015  -2.19000006  53.29999924
C    16.15999985  -1.77999997  53.43999863
C     6.44000006  -3.19000006  53.47999954
H     6.29108095  -4.09060669  52.88432312
H    10.77999973  -1.84000003  51.63000107
H    12.28999996  -4.26999998  55.79999924
H     9.75000000  -4.69999981  56.30000305
H     7.53000021  -4.67999983  55.56000137
H     8.50000000  -2.15000010  52.29000092
H    16.56999969  -1.19999993  52.62000275
H     5.68000031  -3.07999992  54.26000214
H     6.37000036  -2.37000012  52.75000000
S    17.46000099  -3.68999982  56.70999908
C    20.12000084  -3.25000000  56.05999756
C    18.79999924  -2.89999986  55.84999847
C    18.39999962  -2.16999984  54.68999863
C    19.34000015  -1.74000001  53.77999878
C    20.72999954  -1.94000006  54.00000000
C    21.80999947  -1.58000004  53.15000153
C    23.12999916  -1.65999997  53.50000000
C    23.45000076  -2.59000015  54.52000046
C    22.44999886  -3.01999998  55.37000275
C    21.07999992  -2.73000002  55.15999603
C    16.95000076  -2.20000005  54.52000046
C    16.32999992  -2.94000006  55.56000137
C    15.00000000  -3.32999992  55.47999954
C    24.87999916  -2.86000013  54.91000366
H    25.21505165  -2.55346370  55.90090179
H    20.38999939  -3.97000027  56.83000183
H    18.92000008  -1.24000001  52.90999985
H    21.61000061  -0.97999996  52.27000427
H    23.97999954  -1.14999998  53.04000092
H    22.78000069  -3.68000007  56.17000198
H    14.55000019  -3.86999989  56.31000137
H    25.50000000  -2.34999990  54.15999985
H    24.97999954  -3.95000005  54.81999969
