96

S    17.39999962   1.89999998  59.97000122
C    20.09000015   2.09999990  59.27999878
C    18.85000038   1.54999995  59.02000046
C    18.53000069   1.13999999  57.68000031
C    19.55999947   0.90999997  56.79000092
C    20.86999893   1.35000002  57.09999847
C    21.94999886   1.42000008  56.17000198
C    23.19000053   1.94000006  56.50000000
C    23.48999977   2.33999991  57.83000183
C    22.44999886   2.43000007  58.73000336
C    21.14000130   2.03999996  58.33000183
C    17.11000061   1.16999996  57.37999725
C    16.39999962   1.57000005  58.54999924
C    15.01000023   1.63000000  58.61000061
C    24.86000061   2.82999992  58.22000122
H    25.25882721   2.20327210  59.01765442
H    20.23999977   2.50999975  60.27000046
H    19.29000092   0.63000000  55.77999878
H    21.84999847   1.05999994  55.14999771
H    23.90000153   2.09999990  55.70000076
H    22.56000137   2.80999994  59.73999786
H    14.55999947   1.82999992  59.58000183
H    25.52000046   2.66000009  57.36000061
H    24.89999962   3.84999990  58.60000229
S    13.94999981   0.54000002  54.87999725
C    11.28999901   0.44000000  55.45999908
C    12.51000023   0.96000004  55.83000183
C    12.89999962   1.36000013  57.15000153
C    11.92000008   1.31999993  58.11999893
C    10.62000084   0.85000002  57.81999969
C     9.59999943   0.73000002  58.81000137
C     8.30999947   0.39999998  58.44999695
C     7.96000004  -0.00000000  57.12999725
C     8.97000027   0.05000000  56.19999695
C    10.29000092   0.48999998  56.46999741
C    14.32999992   1.39999998  57.41000366
C    15.01000023   0.93000001  56.25999832
C    16.39999962   0.90000004  56.20999908
C     6.54999971  -0.38000000  56.72000122
H     6.11492300   0.29757863  55.98536301
H    11.10999966   0.09000000  54.45000076
H    12.22000027   1.26999998  59.15999985
H     9.72999954   1.13000000  59.80999756
H     7.53999996   0.41999999  59.20999908
H     8.80000019  -0.19000000  55.14999771
H    17.00000000   0.73000002  55.31999969
H     5.88999987  -0.32999998  57.58999634
H     6.43000031  -1.41000009  56.37000275
S    14.78999996  -1.65000010  51.77000046
C    12.18000031  -2.09999990  52.57999802
C    13.50999928  -2.34999990  52.77999878
C    13.92000008  -2.86000013  54.06000137
C    13.03999996  -3.38999987  54.99000168
C    11.67000008  -3.08999991  54.77000427
C    10.64000034  -3.60000014  55.61999893
C     9.30999947  -3.50000000  55.30000305
C     8.88000011  -2.69000006  54.22000122
C     9.82999992  -2.16999984  53.37999725
C    11.21999931  -2.42000008  53.57999802
C    15.36000061  -2.68000007  54.19000244
C    15.95999908  -2.13000011  53.02000046
C    17.27000046  -1.69000006  53.06999969
C     7.40999985  -2.49000001  53.90999603
H     7.16927910  -2.76612091  52.88339615
H    11.82999992  -1.56000006  51.70000076
H    13.40000057  -4.03999996  55.77999878
H    11.00999928  -4.23999977  56.40999603
H     8.57999992  -4.03999996  55.90000153
H     9.55999947  -1.77999997  52.39999771
H    17.67000008  -1.12000000  52.22999954
H     6.72999954  -3.12999988  54.48999786
H     7.07000017  -1.47000003  54.12000275
S    18.63000107  -2.93000007  56.65000153
C    21.31000137  -2.37000012  56.02000427
C    19.98999977  -2.38000011  55.65000153
C    19.48999977  -1.94000006  54.38000107
C    20.42000008  -1.48000002  53.47000122
C    21.80000114  -1.50999999  53.79000092
C    22.70999908  -0.82000005  52.95000076
C    23.97999954  -0.54000002  53.41999817
C    24.51999855  -1.11000001  54.59999847
C    23.64999962  -1.76999998  55.43000031
C    22.27999878  -1.94000006  55.07999802
C    18.04000092  -1.99000001  54.20000076
C    17.48999977  -2.63000011  55.33000183
C    16.13999939  -2.94999981  55.31999969
C    25.96999931  -0.90999997  55.00000000
H    26.29068375  -1.47297788  55.87653732
H    21.60000038  -2.76999998  56.98999786
H    20.13000107  -0.94999999  52.56999969
H    22.34000015  -0.48999998  51.98999786
H    24.67000008   0.09999999  52.88000107
H    24.00000000  -2.21000004  56.36000061
H    15.60999966  -3.32999992  56.18000031
H    26.14999962   0.17000002  55.10000229
H    26.63000107  -1.23000002  54.18000031
