96

S    17.86999893   2.14000010  60.10000229
C    20.55000114   2.42000008  59.47999954
C    19.30999947   1.97000003  59.09000015
C    19.09000015   1.51999998  57.75000000
C    20.09000015   1.39999998  56.79999924
C    21.37000084   1.86000001  57.18000031
C    22.37999916   1.92000008  56.18000031
C    23.59999847   2.46000004  56.52999878
C    23.88000107   2.75999999  57.88999939
C    22.92000008   2.72000027  58.87000275
C    21.59000015   2.37000012  58.50000000
C    17.64000130   1.43000007  57.56000137
C    16.86000061   1.61000001  58.73000336
C    15.47000027   1.52999997  58.72000122
C    25.27000046   3.12999988  58.34999847
H    25.65344048   2.29211569  58.93225861
H    20.48999977   2.80999994  60.48999786
H    19.78999901   1.13999999  55.77999878
H    22.06999969   1.67999995  55.17000198
H    24.40999985   2.38000011  55.80999756
H    23.31000137   2.91000009  59.86999893
H    14.88999939   1.70000005  59.61999893
H    25.86999893   3.38999987  57.45999908
H    25.06999969   4.01999998  58.95000076
S    14.51000023   0.48000002  55.07999802
C    11.78999996   0.25000000  55.59000015
C    13.02000046   0.65999997  56.03000259
C    13.30000019   0.97999996  57.39999771
C    12.20999908   0.93999994  58.23999786
C    10.90999985   0.55000001  57.81999969
C     9.81999969   0.59999996  58.73000336
C     8.53999996   0.34999999  58.29000092
C     8.31999969  -0.06000000  56.95000076
C     9.35999966  -0.25000000  56.06999969
C    10.65999985   0.19999999  56.45000076
C    14.73000050   1.16999996  57.58999634
C    15.53999996   0.90000004  56.45999908
C    16.92000008   1.05999994  56.42000198
C     6.93000031  -0.44000000  56.49000168
H     6.38266468   0.35612422  55.98531342
H    11.71000004   0.03000000  54.52999878
H    12.28000069   1.31999993  59.26000214
H    10.10000038   1.00999999  59.68999863
H     7.62000036   0.45000002  58.87000275
H     9.21000004  -0.56999999  55.04000092
H    17.38999939   0.87000000  55.45999908
H     6.35999966  -0.59000003  57.41000366
H     7.00000000  -1.31999993  55.84999847
S    18.45999908   2.92000008  53.67000198
C    21.14999962   3.28999996  52.88000107
C    19.88000107   2.82999992  52.61000061
C    19.56999969   2.24000001  51.33999634
C    20.55999947   2.04999995  50.38999939
C    21.90000153   2.38999987  50.68999863
C    22.98000145   2.10999990  49.80999756
C    24.27000046   2.47000003  50.13999939
C    24.51999855   3.14000010  51.36000061
C    23.52999878   3.28999996  52.30999756
C    22.18000031   3.02999997  51.93999863
C    18.12000084   2.11999989  51.23000336
C    17.38000107   2.28999996  52.42000198
C    15.98999977   2.16000009  52.50000000
C    25.92000008   3.53999996  51.77000046
H    26.24721146   2.95671320  52.63070297
H    21.35999870   3.71000004  53.86000061
H    20.20999908   1.57000005  49.47999954
H    22.80999947   1.72999990  48.81000137
H    25.10000038   2.38999987  49.43999863
H    23.78000069   3.78999996  53.23999786
H    15.47999954   2.30999994  53.44999695
H    26.55999947   3.31999993  50.90000153
H    26.02000046   4.61000013  51.97999954
S    15.07999992   1.34000003  48.67000198
C    12.36999989   1.04999995  49.22000122
C    13.63000011   1.31999993  49.69999695
C    13.92000008   1.64000010  51.06999969
C    12.79000092   1.69000006  51.86000061
C    11.46000004   1.47000003  51.43000031
C    10.29000092   1.50000000  52.25000000
C     9.02000046   1.34000003  51.76000214
C     8.82999992   0.96000004  50.40999985
C     9.90999985   0.97000003  49.54999924
C    11.23000050   1.13999999  50.05000305
C    15.34999943   1.79000008  51.31999969
C    16.06999969   1.61000001  50.11000061
C    17.45000076   1.77999997  50.05000305
C     7.49000025   0.59000003  49.81999969
H     6.96213293   1.24626708  49.12806702
H    12.22000027   0.64999998  48.22000122
H    12.89999962   1.97000003  52.90000153
H    10.47000027   1.89999998  53.25000000
H     8.14999962   1.53999996  52.38999939
H     9.81000042   0.67000002  48.50000000
H    17.92000008   1.52999997  49.09999847
H     6.77999973   0.37000000  50.61999893
H     7.60999966  -0.39999998  49.34999847
