96

S    17.13999939   1.65999997  60.10000229
C    19.82999992   1.87000012  59.36000061
C    18.53999901   1.54999995  59.00000000
C    18.19000053   1.12000000  57.68000031
C    19.20999908   1.05999994  56.75000000
C    20.56999969   1.29999995  57.09000015
C    21.63000107   1.07000005  56.17000198
C    22.93000031   1.41000009  56.50000000
C    23.26000023   1.87999988  57.80000305
C    22.23999977   2.06999993  58.69999695
C    20.88000107   1.75000000  58.41999817
C    16.73999977   1.13999999  57.51999664
C    16.04999924   1.43000007  58.72000122
C    14.65999985   1.39999998  58.81999969
C    24.59000015   2.40999985  58.27999878
H    25.00960922   1.85526061  59.11922073
H    20.06000137   2.24000001  60.34999847
H    19.04000092   0.92000002  55.68999863
H    21.37000084   0.69999999  55.19000244
H    23.61000061   1.39999998  55.65999985
H    22.40999985   2.36000013  59.73999786
H    14.22000027   1.50000000  59.80999756
H    25.29000092   2.51999998  57.43000031
H    24.61999893   3.48000002  58.54000092
S    13.53000069   0.43000001  55.12000275
C    10.85000038   0.13000000  55.76000214
C    12.10999966   0.50000000  56.17000198
C    12.51000023   0.96000004  57.47000122
C    11.44999981   1.28000009  58.29999924
C    10.14999962   0.81000000  58.01000214
C     9.06999969   0.82000005  58.94000244
C     7.78999996   0.43000001  58.61999893
C     7.48000050  -0.06000000  57.31999969
C     8.51000023  -0.22000000  56.43000031
C     9.84000015   0.17999999  56.76000214
C    13.94000053   1.13000000  57.64999771
C    14.63999939   0.79999995  56.45999908
C    16.02000046   0.83999997  56.36000061
C     6.05999994  -0.34999999  56.86999893
H     5.51083899   0.43451539  56.34936523
H    10.72999954  -0.39999998  54.81999969
H    11.68000031   1.79000008  59.22999954
H     9.23999977   1.39999998  59.84000397
H     7.00999975   0.52999997  59.36999893
H     8.31999969  -0.71999997  55.47999954
H    16.61999893   0.50999999  55.51000214
H     5.59000015  -0.54000002  57.84000015
H     5.98999977  -1.31999993  56.37000275
S    17.43000031   2.19000006  53.62999725
C    20.13000107   2.40999985  53.02000046
C    18.86999893   2.02999997  52.61000061
C    18.55999947   1.58999991  51.27999878
C    19.64999962   1.49000001  50.44000244
C    20.95000076   1.94999993  50.77999878
C    22.06999969   1.86000001  49.91000366
C    23.36000061   2.14000010  50.27999878
C    23.54999924   2.66000009  51.59000015
C    22.50999832   2.87999988  52.45999908
C    21.22999954   2.37000012  52.12999725
C    17.12000084   1.57000005  51.04999924
C    16.39000130   1.85000002  52.22999954
C    15.01000023   1.87999988  52.39999771
C    24.97999954   2.96000004  51.97000122
H    25.37185478   2.31165719  52.75371170
H    20.35000038   2.80999994  54.00000000
H    19.61000061   0.88999999  49.52999878
H    21.94000053   1.41000009  48.93000031
H    24.27999878   1.87999988  49.75999832
H    22.75000000   3.26999998  53.44999695
H    14.56999969   2.07999992  53.36999893
H    25.59999847   2.96000004  51.05999756
H    25.06000137   4.00999975  52.28000259
S    13.93000031   0.76999998  48.69999695
C    11.21000099   0.74000001  49.33000183
C    12.48999977   1.02999997  49.72000122
C    12.86000061   1.50000000  51.02000427
C    11.84000015   1.51999998  51.95000076
C    10.48999977   1.26999998  51.58000183
C     9.55000019   1.30999994  52.64999771
C     8.23999977   0.94999999  52.37999725
C     7.86000013   0.59999996  51.05999756
C     8.75000000   0.64999998  50.00999832
C    10.13000011   0.92000002  50.22999573
C    14.28999996   1.62000000  51.22000122
C    14.98000050   1.34000003  50.00999832
C    16.36000061   1.25000000  49.92000198
C     6.39999962   0.31000000  50.79000092
H     5.87446976   1.05568480  50.19345093
H    11.00000000   0.34000003  48.34000015
H    12.01000023   1.71000004  53.00000000
H     9.85999966   1.65999997  53.61999893
H     7.49000025   1.00999999  53.15999985
H     8.38000011   0.52999997  48.99000168
H    16.84000015   0.85000002  49.02999878
H     5.82999992   0.23000000  51.72999954
H     6.26999950  -0.69000000  50.37000275
