96

S    16.80999947   1.94000006  60.04000092
C    19.48999977   2.03999996  59.47000122
C    18.25000000   1.63000000  59.05000305
C    17.97999954   1.05999994  57.76000214
C    19.07999992   0.99000001  56.91999817
C    20.34000015   1.52999997  57.25999832
C    21.40000153   1.46000004  56.31000137
C    22.67000008   1.85000002  56.65999985
C    22.85000038   2.37000012  57.97000122
C    21.87999916   2.54999995  58.92000198
C    20.59999847   2.02999997  58.59000397
C    16.54000092   1.02999997  57.55000305
C    15.77999973   1.41000009  58.68999863
C    14.44000053   1.75000000  58.61000061
C    24.25000000   2.79999995  58.36000061
H    24.70462036   2.02572632  58.97799683
H    19.67000008   2.28999996  60.51000214
H    19.01000023   0.52999997  55.93999863
H    21.34000015   0.96000004  55.34999847
H    23.52999878   1.62000000  56.04000092
H    22.04000092   2.89000010  59.93999863
H    13.92000008   1.93000007  59.54999924
H    24.86000061   3.01999998  57.48000336
H    24.23000145   3.76999998  58.88000107
S    13.50999928   0.50999999  54.92000198
C    10.77999973   0.39999998  55.56000137
C    12.07999992   0.63000000  55.96000290
C    12.32999992   1.18000007  57.25999832
C    11.31000042   1.29999995  58.18999863
C     9.96999931   1.00999999  57.84000015
C     8.85999966   1.13000000  58.72000122
C     7.53999996   0.88999999  58.39000320
C     7.31999969   0.48000002  57.04999924
C     8.38000011   0.25000000  56.20999908
C     9.72999954   0.59999996  56.49000168
C    13.76000023   1.38999999  57.43999863
C    14.50000000   1.07000005  56.27999878
C    15.88000107   0.92000002  56.31999969
C     5.96000004   0.09000000  56.51000214
H     5.66771507   0.68882829  55.64740372
H    10.65000057   0.01000000  54.54999924
H    11.42000008   1.56000006  59.23999786
H     9.06000042   1.47000003  59.72999954
H     6.76000023   0.97000003  59.13999939
H     8.11999989   0.04000000  55.17000198
H    16.40999985   0.69000000  55.40000153
H     5.26000023   0.39000002  57.30999756
H     5.78999996  -0.97999996  56.35000229
S    17.80999947   2.51999998  53.90999603
C    20.55000114   2.49000001  53.31999969
C    19.26000023   2.22000003  52.94000244
C    18.94000053   1.75000000  51.62000275
C    19.95000076   1.64000010  50.68000031
C    21.28000069   1.98000002  51.04000092
C    22.36999893   1.87999988  50.13999939
C    23.67000198   2.19000006  50.48999786
C    23.98999977   2.70000005  51.77000046
C    22.95000076   2.70000005  52.68000031
C    21.61999893   2.29999995  52.39999771
C    17.51000023   1.79000008  51.35000229
C    16.77999878   2.16999984  52.50999832
C    15.39000034   2.25000000  52.50000000
C    25.34000015   3.35000014  52.00000000
H    25.88786125   2.76656461  52.73996735
H    20.81999969   2.84000015  54.31999969
H    19.63999939   1.36999989  49.68000031
H    22.18000031   1.57000005  49.10999680
H    24.41999817   2.36000013  49.72000122
H    22.96999931   3.07000017  53.69999695
H    14.75000000   2.38000011  53.36000061
H    25.82999992   3.61000013  51.05999756
H    25.05000114   4.26999998  52.50999832
S    14.39000034   1.13999999  48.81000137
C    11.65999985   0.82999998  49.48999786
C    12.92000008   1.28999996  49.79000092
C    13.27999973   1.72000003  51.11000061
C    12.27000046   1.88999999  52.04000092
C    10.93999958   1.51999998  51.72000122
C     9.92999935   1.82999992  52.67000198
C     8.61999989   1.58000004  52.34000397
C     8.27000046   0.87000000  51.16000366
C     9.26000023   0.56000000  50.25000000
C    10.62000084   0.92000002  50.45000076
C    14.70000076   1.93000007  51.32999802
C    15.44999981   1.56000006  50.18000031
C    16.82999992   1.50000000  50.15999603
C     6.81999969   0.67000002  50.76000214
H     6.55674267   1.38150632  49.97734451
H    11.50000000   0.35999998  48.53000259
H    12.53000069   2.30999994  53.00000000
H    10.19999981   2.30999994  53.61000061
H     7.88000011   1.84000003  53.09000015
H     8.96000004   0.39999998  49.22000122
H    17.42000008   1.25999999  49.27999878
H     6.15999985   0.74000001  51.63000107
H     6.75000000  -0.34999999  50.35999680
