96

S    16.95999908   1.48000002  59.95999908
C    19.71999931   1.61000001  59.40000153
C    18.43000031   1.42000008  58.96999741
C    18.19000053   1.08000004  57.60000229
C    19.26000023   0.93000001  56.73999786
C    20.59999847   1.13000000  57.15999985
C    21.67000008   1.11000001  56.23000336
C    22.95000076   1.42000008  56.63999939
C    23.15000153   1.81999993  57.98999786
C    22.14999962   1.81999993  58.93000031
C    20.84000015   1.44999993  58.54000092
C    16.75000000   1.14999998  57.34000397
C    15.95999908   1.25999999  58.50999832
C    14.56999969   1.22000003  58.43000031
C    24.47000122   2.48000002  58.36000061
H    25.18278313   1.71732116  58.67362595
H    19.96999931   1.97000003  60.40000153
H    19.07999992   0.69999999  55.68999863
H    21.48999977   1.19000006  55.15999603
H    23.77000046   1.48000002  55.93999863
H    22.26000023   2.26999998  59.92000198
H    13.93000031   1.43999994  59.27999878
H    24.86000061   3.00999999  57.48000336
H    24.23999977   3.17999983  59.16999817
S    13.71000099   0.08000001  54.80999756
C    10.93000031   0.19000000  55.33000183
C    12.22000027   0.56000000  55.65999985
C    12.51999950   1.13000000  56.93000031
C    11.49000072   1.34000003  57.83000183
C    10.14999962   0.99000001  57.54000092
C     9.10000038   1.10000002  58.50999832
C     7.85000038   0.67000002  58.15000153
C     7.57000017  -0.02000000  56.93999863
C     8.60999966  -0.24000001  56.06999969
C     9.89000034   0.34000003  56.27999878
C    13.94999981   1.13999999  57.18000031
C    14.75000000   0.73000002  56.09000397
C    16.13999939   0.68000007  56.17000198
C     6.25000000  -0.71000004  56.66999817
H     5.66066504  -0.24137208  55.88185501
H    10.73999977  -0.41999999  54.45999908
H    11.69000053   1.69000006  58.83999634
H     9.40999985   1.41000009  59.50000000
H     7.03000021   0.61000001  58.86000061
H     8.59000015  -0.90999997  55.20999908
H    16.79999924   0.19000000  55.45000076
H     5.78000021  -0.54000002  57.63999939
H     6.28000021  -1.80000007  56.53999710
S    17.56999969   2.17999983  53.68000031
C    20.29000092   2.25000000  53.06000137
C    19.01000023   1.93000007  52.68000031
C    18.61999893   1.38999999  51.40999603
C    19.63000107   1.08000004  50.52000046
C    20.95999908   1.46000004  50.81999969
C    21.94999886   1.41000009  49.79999924
C    23.23999786   1.87000012  49.97000122
C    23.59999847   2.39999986  51.24000168
C    22.65000153   2.48000002  52.22999954
C    21.30000114   2.04999995  52.08000183
C    17.18000031   1.43000007  51.14999771
C    16.48999977   1.66999996  52.36999893
C    15.11000061   1.85000002  52.39999771
C    25.02000046   2.51999998  51.72999954
H    25.43888092   1.97332597  52.57485962
H    20.46999931   2.86000013  53.94000244
H    19.34999847   0.56000000  49.61000061
H    21.67000008   0.99000001  48.83999634
H    24.04000092   1.64000010  49.27000046
H    22.88000107   2.84999990  53.22999954
H    14.61999989   2.33999991  53.22999954
H    25.62999916   2.30999994  50.84999847
H    25.19000053   3.58000016  51.95999908
S    13.96000004   0.39000002  48.88999939
C    11.33999920   0.17000002  49.75000000
C    12.61000061   0.62000000  50.01999664
C    12.96000004   1.24000001  51.25999832
C    11.95000076   1.53999996  52.15000153
C    10.59999943   1.19999993  51.88999939
C     9.53999996   1.48000002  52.80000305
C     8.23999977   1.22000003  52.45999908
C     7.94000053   0.56000000  51.24000168
C     8.94999981   0.17999999  50.38999939
C    10.31999969   0.45000002  50.68999863
C    14.40999985   1.36000013  51.30000305
C    15.08999920   1.02999997  50.10000229
C    16.47999954   0.97000003  50.02999878
C     6.51999998   0.17999999  50.87999725
H     6.09104347   0.67330039  50.00778580
H    11.00000000  -0.27000001  48.81000137
H    12.28999996   1.89999998  53.11999893
H     9.84000015   2.00000000  53.69999695
H     7.49000025   1.48000002  53.18999863
H     8.78000069  -0.44000000  49.51000214
H    17.06999969   0.69000000  49.15999985
H     5.86999989   0.39000002  51.73999786
H     6.52999973  -0.90999997  50.76000214
