96

S    17.72999954   2.23000002  59.65000153
C    20.45999908   2.21000004  58.99000168
C    19.14999962   1.98000002  58.61999893
C    18.78000069   1.61000001  57.29000092
C    19.81999969   1.21000004  56.46999741
C    21.18999863   1.38000000  56.77000046
C    22.25000000   1.29999995  55.80999756
C    23.54999924   1.52999997  56.18999863
C    23.81999969   1.97000003  57.50999832
C    22.81999969   2.23000002  58.41999817
C    21.48999977   1.85000002  58.09000015
C    17.34000015   1.47000003  57.11999893
C    16.64999962   1.88999999  58.27999878
C    15.26000023   1.86000001  58.36999893
C    25.20999908   2.48000002  57.84000015
H    25.65781021   1.87581110  58.62900162
H    20.71000099   2.79999995  59.86999893
H    19.62000084   0.76999998  55.48999786
H    21.93000031   1.28999996  54.77000427
H    24.37000084   1.51999998  55.47000122
H    22.98999977   2.93000007  59.23999786
H    14.77000046   1.98000002  59.33000183
H    25.82999992   2.27999997  56.95999908
H    25.22999954   3.51000023  58.18999863
S    14.18000031   0.57999998  54.73999786
C    11.50000000   0.34999999  55.54999924
C    12.77999973   0.79000002  55.79999924
C    13.14000034   1.19999993  57.11999893
C    12.23000050   1.11000001  58.15999985
C    10.86999989   0.78000003  57.91999817
C     9.88000011   0.71999997  58.93000031
C     8.55000019   0.64000005  58.59000397
C     8.19000053   0.19999999  57.29000092
C     9.17000008   0.03000000  56.32999802
C    10.52000046   0.39000002  56.58000183
C    14.57999992   1.36999989  57.25000000
C    15.26999950   1.04999995  56.05999756
C    16.64999962   0.99000001  56.00000000
C     6.76000023  -0.09999999  56.88999939
H     6.33428144   0.60953069  56.18046951
H    11.21999931  -0.19999999  54.65999985
H    12.38999939   1.43000007  59.19000244
H    10.14000034   0.93999994  59.97000122
H     7.67000008   0.82000005  59.20000076
H     8.88000011  -0.23000000  55.31999969
H    17.20999908   0.48999998  55.20999908
H     6.19000006  -0.03000000  57.83000183
H     6.71000004  -1.11000001  56.46999741
S    14.67000008  -1.44999993  51.88000107
C    11.97000027  -1.92000008  52.50000000
C    13.30000019  -2.06999993  52.83000183
C    13.73999977  -2.69000006  54.03999710
C    12.81000042  -3.28999996  54.86000061
C    11.44000053  -3.22000003  54.54000092
C    10.39000034  -3.74000025  55.34999847
C     9.06000042  -3.49000001  55.06000137
C     8.61999989  -2.76999998  53.92000198
C     9.61999989  -2.34999990  53.06999969
C    11.00999928  -2.50000000  53.36999893
C    15.19000053  -2.61999989  54.16999817
C    15.84000015  -1.90999997  53.13000107
C    17.14999962  -1.44999993  53.25000000
C     7.17999983  -2.37000012  53.72000122
H     6.79414749  -2.83445191  52.81253052
H    11.65999985  -1.48000002  51.56000137
H    13.02000046  -3.82999992  55.77999878
H    10.72999954  -4.26000023  56.24000168
H     8.36000061  -3.77999997  55.84000015
H     9.23999977  -1.98000002  52.12999725
H    17.54999924  -0.79000002  52.49000168
H     6.63999987  -2.71000004  54.61000061
H     7.07000017  -1.28000009  53.74000168
S    18.57999992  -3.33999991  56.47999573
C    21.21000099  -2.51999998  55.80999756
C    19.85000038  -2.44000006  55.61999893
C    19.34000015  -1.69000006  54.51000214
C    20.20999908  -1.00000000  53.67000198
C    21.61000061  -1.13000000  53.79000092
C    22.53000069  -0.56999999  52.85999680
C    23.88999939  -0.75000000  53.00000000
C    24.34999847  -1.38999999  54.19000244
C    23.51000023  -1.99000001  55.10000229
C    22.11000061  -1.93000007  54.87999725
C    17.90999985  -1.87000012  54.34999847
C    17.36999893  -2.75000000  55.33000183
C    16.02000046  -3.07000017  55.20000076
C    25.82999992  -1.19000006  54.38999939
H    26.14890289  -1.58685744  55.35379791
H    21.64999962  -3.05000019  56.63999939
H    19.70999908  -0.46000001  52.87000275
H    22.09000015  -0.14000000  51.97000122
H    24.56000137  -0.52999997  52.18000031
H    23.81000137  -2.61999989  55.93999863
H    15.57999992  -3.72000003  55.96000290
H    26.07999992  -0.13000000  54.29999924
H    26.31000137  -1.72999990  53.55999756
