96

S    18.13999939   2.27999997  59.87999725
C    20.82999992   2.31999993  59.19000244
C    19.52999878   2.09999990  58.79000092
C    19.17000008   1.43999994  57.56999969
C    20.19000053   1.24000001  56.65999985
C    21.51000023   1.66999996  56.90999985
C    22.55000114   1.61000001  55.93999863
C    23.85999870   1.94000006  56.20999908
C    24.20999908   2.38000011  57.51999664
C    23.19999886   2.52999997  58.43999863
C    21.84000015   2.16000009  58.22000122
C    17.73999977   1.21000004  57.43000031
C    17.07999992   1.65000010  58.60000229
C    15.69000053   1.70000005  58.66000366
C    25.63999939   2.71000004  57.84999847
H    26.05006790   2.00298381  58.57115936
H    21.07000160   2.75000000  60.15999603
H    19.90999985   0.87000000  55.66999817
H    22.22999954   1.33000004  54.93999863
H    24.56000137   1.81999993  55.38999939
H    23.51000023   2.89000010  59.40999985
H    15.26999950   1.71000004  59.65999985
H    26.30000114   2.57999992  56.97999954
H    25.76000023   3.75999975  58.11999893
S    14.51000023   0.82000005  54.97000122
C    11.80999947   0.64000005  55.70000076
C    13.12000084   0.85000002  56.06999969
C    13.47000027   1.21000004  57.41000366
C    12.44999981   1.28999996  58.34000015
C    11.13000011   0.90999997  58.00000000
C    10.11000061   0.90999997  59.00000000
C     8.80000019   0.61000001  58.66000366
C     8.50000000   0.16000001  57.35000229
C     9.44999981   0.13000000  56.35000229
C    10.75000000   0.62000000  56.63999939
C    14.91000080   1.38999999  57.54000092
C    15.59999943   1.14999998  56.32999802
C    16.97999954   0.97000003  56.26999664
C     7.04999971  -0.14000000  57.08000183
H     6.55786371   0.60890275  56.45948029
H    11.61000061   0.32000002  54.68000031
H    12.64999962   1.52999997  59.38000107
H    10.34000015   1.26999998  59.99000168
H     8.07999992   0.64000005  59.47000122
H     9.21000004  -0.11000000  55.31999969
H    17.46999931   0.86000001  55.31000137
H     6.57000017  -0.28999999  58.06000137
H     7.03000021  -1.14999998  56.65000153
S    18.77000046   2.66000009  53.66000366
C    21.40000153   2.91000009  52.88999939
C    20.13000107   2.50999975  52.54000092
C    19.75000000   2.07999992  51.23000336
C    20.73999786   2.05999994  50.27000046
C    22.09000015   2.37000012  50.56000137
C    23.16999817   2.21000004  49.64000320
C    24.43000031   2.66000009  49.95999908
C    24.70000076   3.24000001  51.22000122
C    23.74000168   3.17000008  52.19999695
C    22.40999985   2.75000000  51.90999985
C    18.30999947   1.89999998  51.13999939
C    17.65999985   2.15000010  52.37999725
C    16.28000069   2.30999994  52.44999695
C    26.00000000   3.95000005  51.53999710
H    26.66898727   3.33794808  52.14493561
H    21.61000061   3.55999994  53.74000168
H    20.45000076   1.69000006  49.29000092
H    22.89999962   1.92000008  48.61999893
H    25.22999954   2.68000007  49.22999954
H    23.82999802   3.61999989  53.18999863
H    15.77000046   2.56999993  53.36999893
H    26.31000137   4.32000017  50.54999924
H    25.72999954   4.85000038  52.09000015
S    15.03000069   1.70000005  48.68999863
C    12.38000011   1.36999989  49.54000092
C    13.68000031   1.70000005  49.84000397
C    14.09999943   2.05999994  51.16000366
C    13.15000057   2.19000006  52.15999985
C    11.82000065   1.79000008  51.86999893
C    10.78999996   2.00000000  52.83000183
C     9.48999977   1.62000000  52.60000229
C     9.07999992   1.11000001  51.33999634
C    10.03000069   1.03999996  50.34000015
C    11.39000034   1.39999998  50.54999924
C    15.54999924   2.14000010  51.26999664
C    16.18000031   1.94000006  50.00999832
C    17.56000137   1.77999997  49.95999908
C     7.67000008   0.69999999  51.00999832
H     7.27117348   1.32672763  50.21234512
H    12.11999989   0.97999996  48.55999756
H    13.35000038   2.46000004  53.18999863
H    11.05000019   2.42000008  53.80000305
H     8.71999931   1.81999993  53.34000015
H     9.72999954   0.81000000  49.31999969
H    18.05999947   1.51999998  49.02999878
H     7.07000017   0.64000005  51.93000031
H     7.88999987  -0.32000002  50.65999985
