96

S    16.36999893   1.50000000  60.17000198
C    19.14999962   1.43999994  59.55999756
C    17.84000015   1.22000003  59.22000122
C    17.56999969   0.92000002  57.84999847
C    18.55999947   0.99000001  56.88999939
C    19.90999985   1.25000000  57.25000000
C    20.92000008   1.11000001  56.25999832
C    22.20999908   1.43999994  56.60999680
C    22.49000168   1.80000007  57.95000076
C    21.59000015   1.65000010  58.99000168
C    20.22999954   1.43999994  58.63999939
C    16.13000107   0.86000001  57.64999771
C    15.31999969   1.22000003  58.75999832
C    13.94999981   1.47000003  58.75999832
C    23.90000153   2.22000003  58.30999756
H    24.41184807   1.49488068  58.94270325
H    19.34000015   1.99000001  60.47999954
H    18.38999939   0.65999997  55.86999893
H    20.62999916   0.76999998  55.27000046
H    23.05999947   1.50999999  55.93000031
H    21.75000000   1.82999992  60.05000305
H    13.42000008   1.67999995  59.68000031
H    24.51000023   2.51999998  57.44999695
H    23.78000069   3.19999981  58.79000092
S    13.00000000   0.27000001  55.07999802
C    10.31000042   0.17999999  55.61999893
C    11.56000042   0.46000001  56.11000061
C    11.82999992   1.11000001  57.36999893
C    10.77999973   1.28999996  58.25000000
C     9.47000027   1.00999999  57.81000137
C     8.36000061   1.03999996  58.70999908
C     7.11000013   0.63000000  58.30999756
C     6.90000010   0.09000000  57.02000046
C     7.95000029  -0.02000000  56.12999725
C     9.23999977   0.43000001  56.52000046
C    13.26000023   1.25000000  57.56000137
C    14.01000023   0.74000001  56.46999741
C    15.39999962   0.71999997  56.46999741
C     5.56999969  -0.50000000  56.59000015
H     5.21192741   0.00846303  55.69482040
H    10.14000034  -0.29999998  54.65999985
H    10.98999977   1.38999999  59.31999969
H     8.60000038   1.19999993  59.75999832
H     6.28999996   0.48999998  59.00000000
H     7.73000002  -0.50999999  55.19000244
H    15.95999908   0.39999998  55.59000015
H     4.84000015  -0.37000000  57.39999771
H     5.75000000  -1.58000004  56.50000000
S    13.47000027  -1.94000006  52.35000229
C    10.78999996  -2.44000006  53.13000107
C    12.13999939  -2.51999998  53.36999893
C    12.63000011  -3.08999991  54.59000015
C    11.75000000  -3.76999998  55.41999817
C    10.38000011  -3.82999992  55.08999634
C     9.42000008  -4.33999968  56.00999832
C     8.06999969  -4.28000021  55.73999786
C     7.55999994  -3.73000002  54.54000092
C     8.46000004  -3.17000008  53.66000366
C     9.85999966  -3.17000008  53.90999603
C    14.06000042  -2.87999988  54.72000122
C    14.68000031  -2.26999998  53.60000229
C    16.03000069  -1.94999993  53.47999954
C     6.11000013  -3.97000027  54.19000244
H     5.90285444  -3.49142218  53.23284149
H    10.40999985  -1.79000008  52.34000397
H    12.13999939  -4.11000013  56.37000275
H     9.72000027  -4.76000023  56.95999908
H     7.35000038  -4.72000027  56.43000031
H     8.18000031  -2.77999997  52.69000244
H    16.54999924  -1.50000000  52.63999939
H     5.98999977  -5.05000019  54.02999878
H     5.38999987  -3.75999975  54.99000168
S    17.43000031  -3.47000003  56.88999939
C    20.03999901  -2.77999997  56.27999878
C    18.71000099  -2.66999984  55.96000290
C    18.25000000  -2.09999990  54.72000122
C    19.18000031  -1.57000005  53.85000229
C    20.55000114  -1.71000004  54.18000031
C    21.55999947  -1.28999996  53.26000214
C    22.88999939  -1.50999999  53.52000427
C    23.35000038  -1.94999993  54.79000092
C    22.40999985  -2.25999999  55.75000000
C    21.02000046  -2.17999983  55.45000076
C    16.81999969  -2.28999996  54.58000183
C    16.23999977  -3.00000000  55.66999817
C    14.88000011  -3.22000003  55.80999756
C    24.84999847  -1.94999993  54.97000122
H    25.13491249  -1.68645537  55.98856354
H    20.27000046  -3.31999993  57.19999695
H    18.92000008  -1.14999998  52.88000107
H    21.21000099  -0.69999999  52.41000366
H    23.65999985  -1.50000000  52.76000214
H    22.81999969  -2.63999987  56.68000031
H    14.39000034  -3.55999994  56.72000122
H    25.35000038  -1.26999998  54.27000046
H    25.25000000  -2.96999979  54.87999725
