96

S    17.69000053   1.81999993  60.13000107
C    20.43999863   1.80000007  59.45000076
C    19.12999916   1.58000004  59.12000275
C    18.81000137   1.24000001  57.76000214
C    19.81999969   1.03999996  56.84000015
C    21.14999962   1.43000007  57.14000320
C    22.20999908   1.39999998  56.19999695
C    23.51000023   1.70000005  56.53999710
C    23.81000137   2.32999992  57.77999878
C    22.76000023   2.42000008  58.67000198
C    21.47000122   1.87000012  58.47000122
C    17.36999893   1.25000000  57.54000092
C    16.65999985   1.62000000  58.69999695
C    15.27999973   1.75999999  58.70999908
C    25.20999908   2.79999995  58.09000015
H    25.67832947   2.38843751  58.98408127
H    20.71000099   2.14000010  60.45000076
H    19.55999947   0.55000001  55.90000153
H    21.91999817   1.18000007  55.18000031
H    24.20999908   1.93000007  55.75000000
H    22.93000031   2.82999992  59.66999817
H    14.70999908   2.07999992  59.59000015
H    25.78000069   2.73000002  57.15999985
H    25.15000153   3.88999987  58.18000031
S    14.19999981   1.02999997  55.00000000
C    11.46999931   0.71000004  55.65000153
C    12.76000023   1.00000000  56.03000259
C    13.07999992   1.41000009  57.36999893
C    12.07999992   1.36999989  58.31999969
C    10.72000027   1.19000006  57.95000076
C     9.71000004   1.19999993  58.95999908
C     8.42000008   0.82999998  58.67000198
C     8.07999992   0.46999997  57.34000397
C     9.04999924   0.50999999  56.35000229
C    10.42000008   0.79000002  56.59999847
C    14.52000046   1.50000000  57.56000137
C    15.27999973   1.23000002  56.39999771
C    16.63999939   0.99000001  56.37000275
C     6.75000000  -0.17000002  57.04000092
H     6.27945185   0.45026791  56.27714157
H    11.10999966   0.14000000  54.79999924
H    12.18999958   1.71000004  59.34000015
H     9.98999977   1.43999994  59.98000336
H     7.79999971   0.54000002  59.52000046
H     8.88000011   0.23000000  55.31999969
H    17.07999992   0.41000003  55.56999969
H     6.17000008  -0.24000001  57.97000122
H     6.94000006  -1.19000006  56.68000031
S    18.27999878   2.37000012  53.83999634
C    20.98999977   2.31999993  53.29000092
C    19.70999908   2.06999993  52.84000015
C    19.42000008   1.71000004  51.47999573
C    20.48999977   1.42000008  50.65000153
C    21.81999969   1.72999990  51.02000427
C    22.93999863   1.59999990  50.13999939
C    24.20000076   2.00999999  50.48999786
C    24.41999817   2.50000000  51.79999924
C    23.38999939   2.51999998  52.70999908
C    22.04999924   2.20000005  52.35000229
C    17.97999954   1.82999992  51.26999664
C    17.26000023   2.26999998  52.39999771
C    15.86999989   2.34999990  52.44999695
C    25.82999992   2.92000008  52.16999817
H    26.24360085   2.20689607  52.88310242
H    21.11000061   2.86000013  54.22000122
H    20.36000061   0.88999999  49.71000290
H    22.85000038   1.25000000  49.12000275
H    24.96999931   1.92000008  49.72999954
H    23.68000031   2.76999998  53.73000336
H    15.44999981   2.70000005  53.39000320
H    26.53000069   2.82999992  51.32999802
H    25.81000137   3.94000006  52.57999802
S    14.80000019   0.81000000  48.99000168
C    12.05000019   0.96000004  49.56999969
C    13.35000038   1.29999995  49.86999893
C    13.69999981   1.92000008  51.11999893
C    12.68000031   2.09000015  52.02999878
C    11.32999992   1.74000001  51.75000000
C    10.34000015   1.89999998  52.77000046
C     9.06000042   1.48000002  52.49000168
C     8.69000053   0.97000003  51.22000122
C     9.63000011   0.85000002  50.21999741
C    10.98000050   1.22000003  50.45999908
C    15.14000034   2.04999995  51.29000092
C    15.86999989   1.58999991  50.17000198
C    17.26000023   1.48000002  50.12000275
C     7.26999998   0.65999997  50.79000092
H     6.95091438   1.18471825  49.88946915
H    11.84000015   0.38000000  48.67000198
H    12.93000031   2.32999992  53.04999924
H    10.67999935   2.19000006  53.75000000
H     8.30999947   1.63000000  53.27000046
H     9.39999962   0.51999998  49.20999908
H    17.75000000   1.00999999  49.27999878
H     6.60000038   0.90999997  51.62000275
H     7.13000011  -0.41000003  50.63000107
