96

S    17.56999969   1.92000008  59.99000168
C    20.28000069   1.94999993  59.29000092
C    18.96000099   1.79000008  58.90999603
C    18.65999985   1.41000009  57.56000137
C    19.67000008   1.14999998  56.65000153
C    21.01000023   1.43999994  56.97999954
C    22.11000061   1.43000007  56.06999969
C    23.42000008   1.67999995  56.42000198
C    23.64000130   2.16000009  57.74000168
C    22.63000107   2.23000002  58.67000198
C    21.30000114   1.86000001  58.31999969
C    17.20999908   1.39999998  57.42000198
C    16.47999954   1.62000000  58.61999893
C    15.10000038   1.52999997  58.74000168
C    25.00999832   2.64999986  58.16999817
H    25.51066399   1.92046189  58.80655670
H    20.36000061   2.37000012  60.28999710
H    19.42000008   0.71999997  55.68999863
H    21.87000084   1.19999993  55.02999878
H    24.13000107   1.64000010  55.59999847
H    22.77000046   2.53999996  59.69999695
H    14.60999966   1.66999996  59.69999695
H    25.55999947   2.82999992  57.23999786
H    24.84000015   3.63999987  58.61000061
S    14.09999943   0.68000007  55.00999832
C    11.31000042   0.52999997  55.68000031
C    12.61999989   0.82999998  55.97999954
C    13.00000000   1.18000007  57.30999756
C    12.03999996   1.38999999  58.27999878
C    10.67000008   1.13000000  58.02999878
C     9.59999943   1.11000001  58.95999908
C     8.34000015   0.59000003  58.72000122
C     7.97999954   0.29999998  57.37999725
C     8.98999977   0.31000000  56.44000244
C    10.32999992   0.71000004  56.70000076
C    14.42999935   1.31999993  57.52999878
C    15.18000031   1.15999997  56.32999802
C    16.55999947   1.15999997  56.19999695
C     6.67999983  -0.38000000  57.02000046
H     6.14669847   0.30973631  56.36581802
H    10.90999985   0.06000000  54.79000092
H    12.30999947   1.58000004  59.31999969
H     9.92999935   1.36999989  59.95999908
H     7.72000027   0.34999999  59.56999969
H     8.78999996  -0.17999999  55.48999786
H    17.14999962   0.86000001  55.34000015
H     6.11999989  -0.68000007  57.90999985
H     6.98000002  -1.35000002  56.58000183
S    14.28999996  -1.72000003  51.93000031
C    11.61999893  -2.29999995  52.48000336
C    12.94000053  -2.34999990  52.88999939
C    13.26000023  -2.87999988  54.18000031
C    12.25999928  -3.28000021  55.05000305
C    10.90000057  -3.16000009  54.66999817
C     9.92000008  -3.68999982  55.54999924
C     8.60000038  -3.65000010  55.15999603
C     8.25000000  -3.00999999  53.95000076
C     9.19000053  -2.48000002  53.09000015
C    10.57000065  -2.59999990  53.39000320
C    14.68000031  -2.66999984  54.43000031
C    15.32999992  -2.04999995  53.33000183
C    16.63999939  -1.57000005  53.29999924
C     6.81999969  -2.63000011  53.62999725
H     6.46545982  -3.07672048  52.70110321
H    11.40999985  -1.88999999  51.50000000
H    12.53999901  -3.54999995  56.05999756
H    10.24000072  -4.13000011  56.49000168
H     7.82999992  -3.98999977  55.84999847
H     8.92000008  -2.00999999  52.15000153
H    17.04000092  -1.10000002  52.41000366
H     6.19000006  -2.96000004  54.45999908
H     6.76999998  -1.52999997  53.60000229
S    18.00000000  -3.08999991  56.70999908
C    20.61000061  -2.25000000  56.11999893
C    19.26000023  -2.21000004  55.83000183
C    18.78000069  -1.70000005  54.58000183
C    19.68000031  -1.28000009  53.61000061
C    21.04000092  -1.19999993  53.99000168
C    22.00000000  -0.88000000  52.98999786
C    23.34000015  -0.88999999  53.27999878
C    23.85000038  -1.52999997  54.43999863
C    22.96999931  -1.95999992  55.40000153
C    21.56999969  -1.75999999  55.20000076
C    17.34000015  -1.84000003  54.47999954
C    16.76000023  -2.53999996  55.56999969
C    15.44000053  -2.96999979  55.56999969
C    25.32999992  -1.85000002  54.51000214
H    25.79884529  -1.55164337  55.44769287
H    20.94000053  -2.86999989  56.95000076
H    19.48999977  -1.08000004  52.56000137
H    21.55999947  -0.59000003  52.04000092
H    24.05999947  -0.59000003  52.51999664
H    23.28000069  -2.42000008  56.32999802
H    14.96000099  -3.45000005  56.40999603
H    25.82999992  -1.43000007  53.62999725
H    25.35000038  -2.93000007  54.33000183
