96

S    16.88999939   1.58000004  59.88999939
C    19.63999939   1.62000000  59.23999786
C    18.34000015   1.34000003  58.89999771
C    17.97999954   1.03999996  57.55000305
C    19.03000069   1.00000000  56.65999985
C    20.38999939   1.31999993  56.90999985
C    21.38000107   1.52999997  55.90999985
C    22.63999939   1.89999998  56.30000305
C    22.96999931   2.16999984  57.65999603
C    22.00000000   2.05999994  58.62999725
C    20.69000053   1.64000010  58.27999878
C    16.54999924   0.93999994  57.30999756
C    15.84000015   1.22000003  58.50999832
C    14.47000027   1.43999994  58.44999695
C    24.40000153   2.50000000  58.02999878
H    24.87059975   1.80123305  58.72163773
H    19.88000107   2.10999990  60.18000031
H    18.81999969   0.83999997  55.59999847
H    21.14000130   1.24000001  54.88999939
H    23.42000008   2.00000000  55.56000137
H    22.11999893   2.43000007  59.65000153
H    13.93000031   1.71000004  59.34000015
H    24.99000168   2.63999987  57.11000061
H    24.41999817   3.51000023  58.47000122
S    13.45999908   0.32999998  54.72999954
C    10.71000004   0.32999998  55.31999969
C    12.01000023   0.59000003  55.70999908
C    12.34000015   1.05999994  57.02000046
C    11.26999950   1.24000001  57.88000107
C     9.92999935   0.93999994  57.54000092
C     8.85000038   0.96000004  58.47000122
C     7.53999996   0.75000000  58.09000015
C     7.26999998   0.46000001  56.72999954
C     8.27999973   0.23000000  55.83000183
C     9.61000061   0.57999998  56.18000031
C    13.76999950   1.13000000  57.27000427
C    14.48999977   0.79999995  56.10000229
C    15.88000107   0.75000000  56.09000397
C     5.82999992   0.07000000  56.46999741
H     5.33079433   0.67617804  55.71405792
H    10.44000053  -0.16000001  54.38999939
H    11.46999931   1.49000001  58.92000198
H     9.09000015   1.29999995  59.47000122
H     6.76000023   0.87000000  58.82999802
H     8.07999992  -0.25000000  54.86999893
H    16.36999893   0.78000003  55.12000275
H     5.40000010   0.05000000  57.48000336
H     5.80999947  -0.99000001  56.19999695
S    17.70000076   2.45000005  53.53000259
C    20.40999985   2.61000013  52.87000275
C    19.12999916   2.23000002  52.50999832
C    18.76000023   1.81999993  51.18999863
C    19.77000046   1.66999996  50.26000214
C    21.11999893   1.92000008  50.59999847
C    22.18000031   1.92000008  49.65000153
C    23.48999977   2.10999990  50.00999832
C    23.77000046   2.71000004  51.26999664
C    22.76000023   2.89000010  52.18000031
C    21.44000053   2.43000007  51.90999985
C    17.30999947   1.67999995  51.10000229
C    16.55999947   2.07999992  52.22999954
C    15.17000008   2.09999990  52.29000092
C    25.17999840   3.10999990  51.65999985
H    25.54329491   2.56149697  52.52905655
H    20.46999931   3.05999994  53.86000061
H    19.63000107   1.15999997  49.31000137
H    21.94000053   1.69000006  48.61000061
H    24.34000015   2.19000006  49.34000015
H    22.86000061   3.50000000  53.06999969
H    14.75000000   2.25000000  53.27999878
H    25.78000069   2.94999981  50.75000000
H    25.20999908   4.19999981  51.79999924
S    14.18000031   0.85000002  48.64999771
C    11.46000004   0.69000000  49.13999939
C    12.71000004   1.04999995  49.61000061
C    13.01000023   1.50999999  50.93000031
C    12.00000000   1.67999995  51.86000061
C    10.72999954   1.18000007  51.45999908
C     9.63000011   1.28999996  52.36000061
C     8.38999939   0.76999998  52.11000061
C     8.15999985   0.20999999  50.81999969
C     9.15000057   0.20999999  49.86999893
C    10.47999954   0.64000005  50.14999771
C    14.42999935   1.74000001  51.16000366
C    15.19000053   1.39999998  50.00999832
C    16.57999992   1.38999999  49.93999863
C     6.70000029   0.02000000  50.45999908
H     6.35909319   0.72311991  49.70006180
H    11.35000038   0.28999999  48.13000107
H    12.30999947   2.07999992  52.81999969
H     9.92000008   1.86000001  53.23999786
H     7.51999950   1.01999998  52.71999741
H     8.90999985   0.03000000  48.81999969
H    16.97000122   0.97999996  49.02000046
H     6.09000015   0.16000001  51.35000229
H     6.47000027  -1.01999998  50.20000076
