96

S    17.63000107   1.64000010  60.04000092
C    20.34000015   1.75000000  59.40000153
C    19.06999969   1.36000013  59.03999710
C    18.75000000   0.97000003  57.70999908
C    19.72999954   0.75000000  56.76000214
C    21.04999924   1.10000002  57.11000061
C    22.17000008   1.01999998  56.23000336
C    23.45999908   1.39999998  56.53999710
C    23.71000099   1.71000004  57.90000153
C    22.69000053   1.87999988  58.81999969
C    21.35999870   1.59999990  58.41999817
C    17.29999924   0.99000001  57.50999832
C    16.55999947   1.43999994  58.63999939
C    15.18000031   1.57000005  58.67000198
C    25.10999870   2.06999993  58.34999847
H    25.52341461   1.43562341  59.13405991
H    20.55000114   2.25000000  60.34000015
H    19.52000046   0.39000002  55.75000000
H    21.98999786   0.68000007  55.20999908
H    24.27000046   1.21000004  55.84000015
H    23.01000214   2.31999993  59.75000000
H    14.60999966   1.90999997  59.52999878
H    25.88000107   2.25000000  57.60000229
H    25.12000084   3.05999994  58.81999969
S    14.07999992   0.14000000  55.13000107
C    11.36999989   0.19999999  55.79999924
C    12.67000008   0.48000002  56.14999771
C    13.02999973   1.07000005  57.41000366
C    12.05000019   1.25000000  58.36999893
C    10.70000076   0.93999994  58.09000015
C     9.61999989   1.35000002  58.90999603
C     8.31999969   1.01999998  58.57999802
C     8.01999950   0.37000000  57.35000229
C     9.02999973   0.07000000  56.47999573
C    10.36999893   0.45000002  56.77000046
C    14.47000027   1.24000001  57.50999832
C    15.18000031   0.75000000  56.38000107
C    16.55999947   0.59000003  56.39999771
C     6.61000013  -0.13000000  57.18999863
H     6.05567312   0.41011333  56.42247009
H    11.11999989  -0.31000000  54.86999893
H    12.25999928   1.72999990  59.31999969
H     9.81999969   1.89999998  59.82999802
H     7.49000025   1.21000004  59.25000000
H     8.85000038  -0.50000000  55.56999969
H    17.05000114   0.20999999  55.51000214
H     6.00000000   0.11000000  58.06999969
H     6.65999985  -1.21000004  56.97000122
S    18.45999908   2.00000000  53.75999832
C    21.09000015   2.05999994  53.01000214
C    19.81999969   1.65000010  52.68000031
C    19.44000053   1.25000000  51.35000229
C    20.43999863   1.29999995  50.40000153
C    21.76000214   1.72999990  50.66999817
C    22.81999969   1.57000005  49.72999954
C    24.07999992   2.04999995  49.95999908
C    24.36000061   2.63999987  51.22000122
C    23.39999962   2.66999984  52.21000290
C    22.11000061   2.09999990  52.02000046
C    17.98999977   1.31999993  51.23000336
C    17.32999992   1.70000005  52.42000198
C    15.95000076   1.90999997  52.39999771
C    25.73999786   3.16000009  51.55000305
H    26.27049637   2.53047609  52.26440430
H    21.21000099   2.56999993  53.96999741
H    20.28000069   0.82000005  49.43000031
H    22.49000168   1.16999996  48.77999878
H    24.80999947   2.04999995  49.15000153
H    23.62999916   3.01999998  53.20999908
H    15.44000053   2.42000008  53.20999908
H    26.24000168   3.22000003  50.58000183
H    25.76999855   4.15999985  51.97999954
S    14.86999989   0.78000003  48.68999863
C    12.13999939   0.56000000  49.52999878
C    13.45999908   0.87000000  49.75999832
C    13.80000019   1.36000013  51.05999756
C    12.79999924   1.58000004  51.97999954
C    11.44000053   1.25999999  51.73999786
C    10.43000031   1.51999998  52.70999908
C     9.11000061   1.36000013  52.35000229
C     8.73999977   0.92000002  51.04999924
C     9.72000027   0.55000001  50.14999771
C    11.10000038   0.64999998  50.48999786
C    15.22999954   1.59999990  51.24000168
C    15.90000057   1.25000000  50.05000305
C    17.28000069   1.04999995  50.06000137
C     7.30999994   0.59000003  50.70999908
H     6.89246416   1.21984196  49.92446518
H    11.89000034   0.28999999  48.50000000
H    13.02000046   2.09000015  52.91999817
H    10.67999935   2.02999997  53.63999939
H     8.34000015   1.67999995  53.04000092
H     9.59999943   0.14999999  49.15000153
H    17.89999962   0.79000002  49.20999908
H     6.71999979   0.75000000  51.62000275
H     7.23000002  -0.46999997  50.47000122
