96

S    16.87000084   1.87999988  59.82999802
C    19.55000114   1.85000002  59.22000122
C    18.29000092   1.43999994  58.86000061
C    17.87999916   0.93999994  57.57999802
C    18.89999962   0.78000003  56.65999985
C    20.22000122   1.19999993  56.95999908
C    21.27000046   1.08000004  56.00000000
C    22.55000114   1.43999994  56.36000061
C    22.88000107   2.11999989  57.56000137
C    21.90000153   2.19000006  58.52000427
C    20.56999969   1.76999998  58.22999954
C    16.44000053   0.81000000  57.43000031
C    15.75000000   1.26999998  58.57999802
C    14.37000084   1.36000013  58.67000198
C    24.27000046   2.54999995  57.97000122
H    24.84568214   1.92456543  58.65229416
H    19.80999947   2.23000002  60.20000076
H    18.63000107   0.34000003  55.70999908
H    21.02000046   0.55000001  55.08999634
H    23.31999969   1.13999999  55.65000153
H    22.06000137   2.59000015  59.52000046
H    13.92000008   1.57000005  59.64000320
H    24.84999847   2.87999988  57.09999847
H    24.04999924   3.45999980  58.54000092
S    13.21000004   0.32999998  55.00000000
C    10.50000000   0.09999999  55.70000076
C    11.80999947   0.32999998  56.07999802
C    12.20999908   0.71999997  57.39999771
C    11.17000008   0.92000002  58.29999924
C     9.85000038   0.56000000  57.97000122
C     8.76000023   0.71000004  58.88000107
C     7.44999981   0.44000000  58.59000397
C     7.11000013   0.14000000  57.23999786
C     8.07999992   0.01000000  56.27999878
C     9.44999981   0.14000000  56.65000153
C    13.63000011   0.97999996  57.54000092
C    14.32000065   0.71000004  56.32999802
C    15.70000076   0.51999998  56.27999878
C     5.68000031  -0.02000000  56.77000046
H     5.42441797   0.87453836  56.20204163
H    10.15999985  -0.28999999  54.75000000
H    11.43000031   1.28000009  59.29000092
H     8.97999954   1.19999993  59.82999802
H     6.67999983   0.61000001  59.34000015
H     7.69000006  -0.16000001  55.27999878
H    16.29999924   0.29999998  55.40000153
H     5.07000017  -0.14000000  57.67000198
H     5.58000040  -0.94999999  56.18999863
S    17.53000069   2.34999990  53.75999832
C    20.29000092   2.29999995  53.15999985
C    18.98999977   2.02999997  52.80000305
C    18.71000099   1.51999998  51.49000168
C    19.75000000   1.34000003  50.59999847
C    21.11000061   1.51999998  50.97999954
C    22.11000061   1.46000004  49.97000122
C    23.42000008   1.74000001  50.28999710
C    23.69999886   2.16000009  51.60999680
C    22.76000023   2.20000005  52.62000275
C    21.38999939   1.99000001  52.30999756
C    17.27000046   1.34000003  51.33999634
C    16.50000000   1.94000006  52.36999893
C    15.11999989   1.90999997  52.43999863
C    25.06999969   2.66999984  52.00000000
H    25.47659111   2.20634389  52.89878082
H    20.38000107   2.87999988  54.06999969
H    19.47000122   1.13999999  49.56999969
H    21.87000084   1.21000004  48.94000244
H    24.23999977   1.58000004  49.59000015
H    22.98999977   2.61999989  53.59000397
H    14.72000027   2.09999990  53.43000031
H    25.69999886   2.50999975  51.11999893
H    25.03999901   3.75999975  52.14000320
S    14.07999992   0.73000002  48.86000061
C    11.36000061   0.37000000  49.64000320
C    12.68000031   0.62000000  49.93999863
C    12.97000027   1.16999996  51.23000336
C    11.97000027   1.52999997  52.11999893
C    10.62999916   1.13999999  51.86999893
C     9.61000061   1.43999994  52.81000137
C     8.30000019   1.19999993  52.47000122
C     7.96999979   0.46999997  51.30000305
C     8.97000027   0.17999999  50.40000153
C    10.34000015   0.48999998  50.61999893
C    14.40000057   1.42000008  51.33999634
C    15.18000031   1.13000000  50.19000244
C    16.56999969   1.05999994  50.15999603
C     6.54999971   0.16000001  50.89000320
H     6.40819645   0.49323803  49.86192703
H    11.10999966   0.02000000  48.63999939
H    12.13999939   2.09000015  53.02999878
H     9.77000046   2.01999998  53.72000122
H     7.46000004   1.44999993  53.11999893
H     8.63000011  -0.28000000  49.47999954
H    17.19000053   0.67000002  49.36000061
H     5.89999962   0.76999998  51.52999878
H     6.39999962  -0.92000002  50.84999847
