96

S    17.30999947   1.98000002  59.93000031
C    20.03000069   2.00000000  59.29000092
C    18.72999954   1.74000001  58.89999771
C    18.35000038   1.47000003  57.55000305
C    19.37999916   1.52999997  56.63000107
C    20.69000053   1.95999992  56.93999863
C    21.70999908   1.98000002  55.93999863
C    22.98999977   2.29999995  56.30000305
C    23.29000092   2.61999989  57.65999603
C    22.39000130   2.47000003  58.68999863
C    21.05999947   2.13000011  58.31999969
C    16.92000008   1.25999999  57.37999725
C    16.22999954   1.61000001  58.56999969
C    14.85000038   1.79000008  58.61000061
C    24.64999962   3.17999983  58.00000000
H    25.11915398   2.54735160  58.75349045
H    20.36000061   2.27999997  60.28999710
H    19.06999969   1.24000001  55.63000107
H    21.55999947   1.72999990  54.89999771
H    23.75000000   2.36000013  55.52999878
H    22.70000076   2.79999995  59.68000031
H    14.39000034   2.20000005  59.51000214
H    25.29000092   3.30000019  57.11000061
H    24.60000038   4.19999981  58.39000320
S    13.73999977   0.71000004  54.94999695
C    11.06999969   0.28000000  55.68999863
C    12.35000038   0.64999998  56.04999924
C    12.68000031   1.13999999  57.35000229
C    11.64000034   1.28999996  58.26000214
C    10.34999943   0.79000002  58.00000000
C     9.27999973   0.88999999  58.94000244
C     8.01000023   0.46000001  58.62999725
C     7.76000023  -0.09999999  57.36000061
C     8.78999996  -0.32000002  56.46999741
C    10.06999969   0.25999999  56.69000244
C    14.11000061   1.39999998  57.49000168
C    14.81999969   1.01999998  56.32999802
C    16.20000076   0.82000005  56.26999664
C     6.35999966  -0.54000002  57.00000000
H     5.85385799   0.22277713  56.40831375
H    10.90000057  -0.08000001  54.68000031
H    11.79999924   1.65000010  59.27000046
H     9.50000000   1.39999998  59.87999725
H     7.25000000   0.34000003  59.40000153
H     8.71000004  -0.92000002  55.56999969
H    16.70999908   0.62000000  55.33000183
H     5.78000021  -0.82000005  57.88999939
H     6.39999962  -1.51999998  56.50000000
S    17.46000099   2.66000009  53.67000198
C    20.15999985   2.80999994  52.98999786
C    18.88000107   2.45000005  52.63000107
C    18.60999870   1.88999999  51.33999634
C    19.59000015   1.86000001  50.35999680
C    20.90999985   2.21000004  50.70999908
C    21.97000122   2.09999990  49.77000427
C    23.28000069   2.23000002  50.14999771
C    23.57000160   2.73000002  51.45000076
C    22.56999969   2.92000008  52.36999893
C    21.21999931   2.63999987  52.04999924
C    17.18000031   1.67999995  51.20999908
C    16.43000031   2.01999998  52.36999893
C    15.06000042   2.22000003  52.43000031
C    24.97999954   3.10999990  51.84999847
H    25.47534943   2.43773961  52.55056763
H    20.28000069   3.45999980  53.85000229
H    19.45000076   1.50000000  49.34000015
H    21.64999962   1.88999999  48.75000000
H    24.11000061   2.03999996  49.45999908
H    22.88999939   3.32999992  53.33000183
H    14.52000046   2.68000007  53.26000214
H    25.61000061   3.21000004  50.96000290
H    24.79000092   4.07000017  52.32999802
S    13.85000038   0.82000005  48.92000198
C    11.19999981   1.05999994  49.52000046
C    12.48999977   1.35000002  49.93000031
C    12.90999985   1.90999997  51.17000198
C    11.89000034   2.02999997  52.09999847
C    10.54999924   1.69000006  51.81999969
C     9.48999977   1.89999998  52.74000168
C     8.19000053   1.51999998  52.55000305
C     7.81000042   1.21000004  51.20999908
C     8.80000019   1.05999994  50.27000046
C    10.19000053   1.25000000  50.48999786
C    14.34999943   1.76999998  51.31000137
C    15.03000069   1.28000009  50.17000198
C    16.40999985   1.34000003  50.08999634
C     6.44000006   0.68000007  50.86000061
H     5.94844198   1.34253490  50.14759827
H    11.03999996   0.55000001  48.57999802
H    12.03999996   2.17999983  53.16999817
H     9.73999977   2.33999991  53.69999695
H     7.50000000   1.51999998  53.40000153
H     8.46000004   0.86000001  49.26000214
H    16.98999977   1.10000002  49.20000076
H     5.86000013   0.59000003  51.79000092
H     6.63000011  -0.28999999  50.38999939
