96

S    17.02000046   1.77999997  59.65999985
C    19.72999954   1.75000000  58.82999802
C    18.39999962   1.48000002  58.57999802
C    18.04999924   0.93000001  57.29999924
C    19.03000069   0.63000000  56.37000275
C    20.39999962   0.93000001  56.59000015
C    21.44000053   0.76999998  55.63999939
C    22.75000000   1.07000005  55.93000031
C    23.08000183   1.70000005  57.15999985
C    22.04999924   2.02999997  58.01000214
C    20.73999786   1.51999998  57.85999680
C    16.61000061   0.75999999  57.22999954
C    15.92000008   1.25999999  58.36000061
C    14.53999996   1.14999998  58.46000290
C    24.48999786   2.09999990  57.52999878
H    24.83723450   1.48347902  58.35911179
H    19.93000031   2.33999991  59.72000122
H    18.68000031   0.17000002  55.45999908
H    21.14999962   0.61000001  54.59999847
H    23.57000160   0.85000002  55.26000214
H    22.18000031   2.54999995  58.95999908
H    14.09999943   1.46000004  59.40000153
H    25.10999870   2.07999992  56.63000107
H    24.44000053   3.15000010  57.87000275
S    13.31999969  -0.02000000  54.89999771
C    10.64000034   0.03000000  55.63999939
C    11.94000053   0.29999998  55.97000122
C    12.30000019   0.69999999  57.29999924
C    11.31999969   0.94999999  58.25000000
C     9.96999931   0.63000000  57.95999908
C     8.86999989   0.68000007  58.86000061
C     7.60999966   0.22000000  58.55999756
C     7.26000023  -0.20999999  57.25000000
C     8.34000015  -0.37000000  56.40999603
C     9.64999962   0.14000000  56.65000153
C    13.75000000   0.75999999  57.36000061
C    14.45000076   0.28999999  56.22000122
C    15.84000015   0.31000000  56.14999771
C     5.88999987  -0.79999995  56.95999908
H     5.33066702  -0.20526654  56.23782349
H    10.39000034  -0.39999998  54.66999817
H    11.52999973   1.38999999  59.22000122
H     9.07999992   0.93000001  59.88999939
H     6.84999990   0.16000001  59.34000015
H     8.18000031  -0.94999999  55.51000214
H    16.27000046   0.02000000  55.20000076
H     5.29999971  -0.85000002  57.88000107
H     6.03999996  -1.77999997  56.50000000
S    13.66000080  -2.13000011  51.90999985
C    11.00000000  -2.59999990  52.61000061
C    12.32999992  -2.71000004  52.94000244
C    12.79999924  -3.19999981  54.20000076
C    11.84999943  -3.58000016  55.13000107
C    10.48999977  -3.53999996  54.73999786
C     9.53999996  -4.15999985  55.59999847
C     8.19000053  -4.07999992  55.31999969
C     7.68000031  -3.45000005  54.15999985
C     8.57999992  -2.84999990  53.30999756
C     9.98000050  -3.00000000  53.50999832
C    14.26000023  -3.17000008  54.27000046
C    14.84000015  -2.45000005  53.18999863
C    16.18999863  -2.09999990  53.16999817
C     6.17999983  -3.30999994  54.08000183
H     5.83211708  -3.72887945  53.13574600
H    10.72999954  -2.25999999  51.60999680
H    12.18000031  -4.15000010  55.98999786
H     9.85000038  -4.61000013  56.53999710
H     7.60999966  -4.61999989  56.06999969
H     8.22000027  -2.31999993  52.43000031
H    16.76000023  -1.64000010  52.36999893
H     5.64000034  -3.81999993  54.87999725
H     5.88000011  -2.25000000  54.05000305
S    17.59000015  -3.63999987  56.60999680
C    20.26000023  -3.15000010  55.87999725
C    18.92000008  -3.05000019  55.59999847
C    18.38999939  -2.39999986  54.43000031
C    19.34000015  -1.87000012  53.57999802
C    20.72999954  -1.89999998  53.86000061
C    21.77999878  -1.51999998  52.97999954
C    23.09999847  -1.76999998  53.26000214
C    23.57999992  -2.25000000  54.51000214
C    22.60999870  -2.70000005  55.38000107
C    21.22999954  -2.51999998  55.06000137
C    16.95000076  -2.50999975  54.27000046
C    16.38000107  -3.14000010  55.40999985
C    15.05000019  -3.55999994  55.34999847
C    25.02000046  -2.61000013  54.79999924
H    25.55248642  -1.98521590  55.51707840
H    20.53999901  -3.58999991  56.83000183
H    19.03000069  -1.41000009  52.64999771
H    21.63999939  -1.23000002  51.93999863
H    23.84000015  -1.61000001  52.48000336
H    22.93999863  -3.22000003  56.27999878
H    14.56999969  -4.19000006  56.09000397
H    25.52000046  -2.46000004  53.83999634
H    25.03999901  -3.67000008  55.06999969
