96

S    16.64999962   1.44999993  59.97000122
C    19.37000084   1.36000013  59.26000214
C    18.05999947   1.08000004  58.95999908
C    17.65999985   0.57999998  57.68000031
C    18.64999962   0.45000002  56.72000122
C    20.02000046   0.71999997  56.97000122
C    21.02000046   0.48999998  55.98999786
C    22.29000092   0.94999999  56.24000168
C    22.63000107   1.56000006  57.48000336
C    21.70999908   1.66999996  58.50000000
C    20.36999893   1.23000002  58.26000214
C    16.21999931   0.62000000  57.50999832
C    15.53999996   1.21000004  58.61000061
C    14.15999985   1.25000000  58.75000000
C    24.04000092   2.04999995  57.70000076
H    24.55308342   1.43715012  58.44112396
H    19.70000076   1.82999992  60.19000244
H    18.47999954   0.05000000  55.72000122
H    20.68000031   0.14999999  55.00999832
H    23.05000114   0.76999998  55.48999786
H    22.04000092   1.97000003  59.48999786
H    13.63999939   1.44999993  59.68000031
H    24.57999992   1.93000007  56.75000000
H    24.03000069   3.10999990  57.98999786
S    13.09000015  -0.08000001  55.14999771
C    10.40999985  -0.25000000  55.80999756
C    11.67000008   0.13000000  56.19999695
C    11.97999954   0.75000000  57.45999908
C    10.93000031   1.10000002  58.29000092
C     9.63000011   0.65999997  57.95999908
C     8.50000000   0.90000004  58.80000305
C     7.25000000   0.41999999  58.50000000
C     6.98999977  -0.25999999  57.28000259
C     8.03999996  -0.48000002  56.42000198
C     9.35999966  -0.05000000  56.73999786
C    13.42000008   0.90000004  57.62000275
C    14.13000011   0.54000002  56.44000244
C    15.50000000   0.29999998  56.35000229
C     5.58000040  -0.61000001  56.86000061
H     5.20923376  -0.10376114  55.96873474
H    10.26000023  -0.61000001  54.79000092
H    11.00000000   1.52999997  59.29000092
H     8.65999985   1.50999999  59.68000031
H     6.39999962   0.71999997  59.10999680
H     7.88999987  -0.99000001  55.45999908
H    16.01000023  -0.05000000  55.45999908
H     4.86999989  -0.46999997  57.68000031
H     5.65000010  -1.70000005  56.75000000
S    13.60000038  -2.14000010  52.05999756
C    10.95000076  -2.79000020  52.56000137
C    12.25999928  -2.86000013  52.97000122
C    12.69000053  -3.48000002  54.19000244
C    11.67000008  -3.91999984  55.01999664
C    10.29999924  -3.86000013  54.68999863
C     9.22000027  -4.28000021  55.52000046
C     7.92000008  -4.17000008  55.08999634
C     7.51999950  -3.60000014  53.85000229
C     8.56000042  -3.21000004  53.04000092
C     9.92999935  -3.30999994  53.40999985
C    14.11999893  -3.32999992  54.40000153
C    14.73999977  -2.61000013  53.34000015
C    16.07999992  -2.25999999  53.30999756
C     6.07999992  -3.23000002  53.54999924
H     5.67354727  -3.75767589  52.68718338
H    10.73999977  -2.31999993  51.60999680
H    11.92999935  -4.26000023  56.00999832
H     9.48000050  -4.67999983  56.50000000
H     7.05999947  -4.36999989  55.70999908
H     8.26000023  -2.71000004  52.11999893
H    16.46000099  -1.70000005  52.45999908
H     5.46999979  -3.32999992  54.45000076
H     5.98999977  -2.15000010  53.36000061
S    17.43999863  -4.00000000  56.63999939
C    20.12000084  -3.45000005  56.00999832
C    18.78999901  -3.30999994  55.70999908
C    18.34000015  -2.64999986  54.52000046
C    19.29999924  -2.19000006  53.62999725
C    20.68000031  -2.26999998  53.93000031
C    21.70999908  -1.87999988  53.04000092
C    23.05000114  -2.06999993  53.29999924
C    23.47999954  -2.63000011  54.54000092
C    22.50000000  -3.00999999  55.43000031
C    21.11000061  -2.86000013  55.17000198
C    16.90000153  -2.75000000  54.34000015
C    16.28000069  -3.42000008  55.43000031
C    14.92000008  -3.67000008  55.50000000
C    24.90999985  -3.05000019  54.79000092
H    25.32993317  -2.59447980  55.68680573
H    20.39999962  -4.13000011  56.81000137
H    18.95000076  -1.86000001  52.65999603
H    21.40000153  -1.36999989  52.14000320
H    23.72999954  -1.79000008  52.50000000
H    22.81999969  -3.53999996  56.31999969
H    14.39000034  -4.18000031  56.30000305
H    25.62000084  -2.89000010  53.95999908
H    24.79999924  -4.11999989  55.00000000
