96

S    16.61000061   1.47000003  59.79999924
C    19.32999992   1.58000004  59.18000031
C    18.04999924   1.23000002  58.80000305
C    17.75000000   0.75999999  57.48000336
C    18.82999992   0.51999998  56.63999939
C    20.15999985   0.87000000  56.95999908
C    21.24000168   0.86000001  56.02000427
C    22.50000000   1.26999998  56.37000275
C    22.72000122   1.90999997  57.62000275
C    21.68000031   1.95999992  58.52000427
C    20.39999962   1.38999999  58.27000046
C    16.31999969   0.71000004  57.22000122
C    15.60999966   1.08999991  58.39000320
C    14.22000027   1.19000006  58.40000153
C    24.14999962   2.04999995  58.09999847
H    24.49181557   1.37349248  58.88332367
H    19.50000000   1.95999992  60.18000031
H    18.56999969   0.07000000  55.68999863
H    20.92000008   0.44000000  55.06999969
H    23.31000137   0.94999999  55.70999908
H    21.93000031   2.34999990  59.50000000
H    13.68999958   1.50999999  59.29000092
H    24.67000008   1.86000001  57.15000153
H    24.28999901   3.07000017  58.48999786
S    13.07999992  -0.28000000  54.86000061
C    10.39999962  -0.17999999  55.56999969
C    11.69999981   0.14000000  55.89000320
C    12.03999996   0.63000000  57.18999863
C    11.05000019   0.82999998  58.13999939
C     9.70000076   0.48999998  57.88000107
C     8.67999935   0.68000007  58.86000061
C     7.39000034   0.34999999  58.54999924
C     7.14999962  -0.43000001  57.37999725
C     8.11999989  -0.63000000  56.42000198
C     9.43000031  -0.11000000  56.59999847
C    13.48000050   0.74000001  57.29999924
C    14.17000008   0.25999999  56.16000366
C    15.55999947   0.28999999  56.12999725
C     5.73999977  -0.75999999  56.93000031
H     5.40479803  -0.15378380  56.08842850
H    10.14999962  -0.75000000  54.68000031
H    11.30000019   1.01999998  59.18000031
H     8.89999962   1.22000003  59.78000259
H     6.51000023   0.82999998  58.96999741
H     7.81000042  -1.01999998  55.45000076
H    16.06999969  -0.09999999  55.25000000
H     5.05000019  -0.50000000  57.74000168
H     5.69000006  -1.84000003  56.75000000
S    14.09999943  -2.32999992  51.98999786
C    11.38000011  -2.77999997  52.62000275
C    12.71000004  -2.91000009  52.91999817
C    13.09999943  -3.49000001  54.16999817
C    12.15000057  -3.91000009  55.08999634
C    10.77999973  -3.75999975  54.77000427
C     9.72999954  -4.21000004  55.63000107
C     8.38999939  -4.07999992  55.34000015
C     8.03999996  -3.30000019  54.20999908
C     8.98999977  -2.86999989  53.30999756
C    10.36999893  -3.08999991  53.56999969
C    14.52999973  -3.37000012  54.40000153
C    15.19999981  -2.73000002  53.31999969
C    16.50000000  -2.25000000  53.41999817
C     6.57999992  -3.03999996  53.93000031
H     6.15213776  -3.68179321  53.15984726
H    10.97000027  -2.54999995  51.63000107
H    12.38999939  -4.28999996  56.07999802
H    10.01000023  -4.76000023  56.52000046
H     7.59000015  -4.36999989  56.03000259
H     8.82999992  -2.38000011  52.35000229
H    17.05999947  -1.84000003  52.57999802
H     5.89999962  -2.93000007  54.78000259
H     6.56000042  -2.05999994  53.41999817
S    17.84000015  -3.91999984  56.77999878
C    20.52000046  -3.23000002  56.12999725
C    19.18000031  -3.23000002  55.84000015
C    18.67000008  -2.50999975  54.72000122
C    19.52999878  -1.86000001  53.85000229
C    20.92000008  -1.94000006  54.09999847
C    21.84000015  -1.25999999  53.25000000
C    23.18000031  -1.28000009  53.52000427
C    23.71000099  -2.04999995  54.59000015
C    22.86000061  -2.73999977  55.41999817
C    21.45000076  -2.69000006  55.20999908
C    17.21999931  -2.57999992  54.56999969
C    16.63999939  -3.33999991  55.61000061
C    15.29999924  -3.71000004  55.52000046
C    25.20999908  -2.09000015  54.75999832
H    25.63656807  -2.05445266  55.76243210
H    20.93000031  -3.77999997  56.97999954
H    19.18000031  -1.28000009  52.98999786
H    21.40999985  -0.51999998  52.56999969
H    23.74000168  -0.55000001  52.93000031
H    23.15999985  -3.19999981  56.36000061
H    14.91000080  -4.15000010  56.43000031
H    25.63999939  -1.24000001  54.20999908
H    25.62999916  -2.96000004  54.23999786
