96

S    17.04000092   1.42000008  59.97000122
C    19.64999962   1.76999998  59.34999847
C    18.45000076   1.26999998  58.89999771
C    18.20000076   0.90999997  57.54000092
C    19.22000122   1.05999994  56.62000275
C    20.48999977   1.50000000  57.04999924
C    21.54999924   1.82999992  56.17000198
C    22.79999924   2.13000011  56.65999985
C    23.01000214   2.50999975  58.01000214
C    21.97999954   2.30999994  58.90999603
C    20.73999786   1.80999994  58.43999863
C    16.76000023   0.71999997  57.41000366
C    16.02000046   1.11000001  58.54999924
C    14.63999939   1.24000001  58.68999863
C    24.37999916   2.91000009  58.48999786
H    24.74775696   2.26642489  59.28916168
H    19.79999924   2.06999993  60.38000107
H    19.09000015   0.90000004  55.54999924
H    21.38999939   1.44999993  55.15999603
H    23.64999962   2.13000011  55.97000122
H    22.01999855   2.70000005  59.92000198
H    14.04000092   1.43000007  59.56999969
H    25.05000114   2.99000001  57.63000107
H    24.46000099   3.95000005  58.82999802
S    13.53999996   0.71999997  54.87999725
C    10.84000015   0.65999997  55.54999924
C    12.13999939   0.81000000  55.96000290
C    12.48999977   0.97000003  57.34000397
C    11.50000000   1.01999998  58.30999756
C    10.14999962   0.90000004  57.90999985
C     9.07999992   0.94999999  58.85000229
C     7.82000017   0.51999998  58.52000427
C     7.53000021   0.16000001  57.16999817
C     8.50000000   0.24000001  56.19999695
C     9.81000042   0.65999997  56.52999878
C    13.94000053   1.00000000  57.50000000
C    14.63000107   0.88000000  56.26999664
C    16.01000023   0.74000001  56.22000122
C     6.15000010  -0.31000000  56.77999878
H     5.74296427   0.36839354  56.03019714
H    10.71000004   0.34000003  54.52000046
H    11.72999954   1.19000006  59.36000061
H     9.35999966   1.21000004  59.86999893
H     7.00000000   0.55000001  59.23999786
H     8.36999989  -0.16000001  55.20000076
H    16.60000038   0.88000000  55.31999969
H     5.49000025  -0.25999999  57.65999603
H     6.28000021  -1.30999994  56.33999634
S    17.38000107   2.70000005  53.54999924
C    20.15999985   2.75999999  53.09000015
C    18.89000130   2.49000001  52.64999771
C    18.67000008   2.09999990  51.29000092
C    19.75000000   2.13000011  50.41999817
C    21.04000092   2.57999992  50.77000046
C    22.17000008   2.61999989  49.91000366
C    23.45000076   2.77999997  50.40000153
C    23.62999916   2.91000009  51.79999924
C    22.56999969   2.96999979  52.67000198
C    21.25000000   2.79000020  52.18000031
C    17.25000000   2.02999997  50.97999954
C    16.43000031   2.31999993  52.09999847
C    15.05000019   2.27999997  52.18999863
C    24.96999931   3.35999990  52.35000229
H    25.58101082   2.54294920  52.73365784
H    20.32999992   3.12999988  54.09999847
H    19.52999878   1.93000007  49.38000107
H    21.94999886   2.51999998  48.85000229
H    24.27999878   2.82000017  49.69999695
H    22.72999954   3.14000010  53.73000336
H    14.50000000   2.72000027  53.01000214
H    25.55999947   3.82999992  51.55000305
H    24.86000061   4.17000008  53.08000183
S    14.14999962   1.16999996  48.48999786
C    11.40999985   1.01999998  48.99000168
C    12.68000031   1.26999998  49.47000122
C    13.01000023   1.72999990  50.77999878
C    11.96000004   2.01999998  51.63999939
C    10.62999916   1.72999990  51.25000000
C     9.53999996   1.85000002  52.15999985
C     8.26000023   1.58999991  51.73999786
C     8.00000000   1.02999997  50.45999908
C     9.03999996   0.90999997  49.56999969
C    10.36999893   1.28999996  49.91000366
C    14.45000076   1.75000000  51.04000092
C    15.21000004   1.54999995  49.86000061
C    16.60000038   1.63000000  49.80999756
C     6.67000008   0.39999998  50.11000061
H     6.07962561   1.01882648  49.43426895
H    11.16000080   0.48999998  48.06999969
H    12.18999958   2.28999996  52.65999603
H     9.78999996   2.27999997  53.13000107
H     7.49000025   1.75000000  52.49000168
H     8.86999989   0.34000003  48.66000366
H    17.17000008   1.26999998  48.95000076
H     6.11999989   0.25000000  51.05999756
H     6.71000004  -0.64999998  49.79000092
