96

S    17.42000008   1.58000004  60.00000000
C    20.06999969   1.94000006  59.22000122
C    18.81000137   1.49000001  58.89999771
C    18.44000053   1.04999995  57.58999634
C    19.45000076   0.93000001  56.65000153
C    20.79000092   1.28999996  56.93000031
C    21.78999901   1.42000008  55.93000031
C    23.09000015   1.72000003  56.27999878
C    23.44000053   2.00999999  57.63000107
C    22.46999931   1.97000003  58.60000229
C    21.09999847   1.72000003  58.27000046
C    17.00000000   0.94999999  57.43000031
C    16.32999992   1.31999993  58.61999893
C    14.94999981   1.50999999  58.66000366
C    24.86000061   2.45000005  57.90000153
H    25.49939156   1.71114862  58.38309479
H    20.28000069   2.22000003  60.25000000
H    19.15999985   0.81000000  55.61000061
H    21.63999939   1.14999998  54.88999939
H    23.88999939   1.61000001  55.54999924
H    22.63999939   2.31999993  59.61000061
H    14.52000046   1.72999990  59.62999725
H    25.36999893   2.72000027  56.97000122
H    24.77999878   3.35000014  58.52000427
S    13.81000042   0.92000002  54.92000198
C    11.18999958   0.41999999  55.59000015
C    12.41000080   0.90000004  56.00999832
C    12.69000053   1.33000004  57.35000229
C    11.67000008   1.39999998  58.27999878
C    10.39000034   0.94999999  57.88000107
C     9.30999947   0.93000001  58.80000305
C     8.01999950   0.64999998  58.39000320
C     7.81000042   0.09000000  57.11000061
C     8.85999966  -0.04000000  56.22000122
C    10.14000034   0.48999998  56.53999710
C    14.13000011   1.41000009  57.52999878
C    14.85000038   1.13000000  56.35000229
C    16.21999931   0.90999997  56.26999664
C     6.44999981  -0.45000002  56.72000122
H     6.11596870   0.06170753  55.81740570
H    11.09000015   0.03000000  54.58000183
H    11.90999985   1.61000001  59.31999969
H     9.53999996   1.23000002  59.81999969
H     7.17999983   0.90000004  59.02000046
H     8.86999989  -0.46000001  55.21999741
H    16.82999992   0.79999995  55.38000107
H     5.73000002  -0.27000001  57.51999664
H     6.57000017  -1.53999996  56.75000000
S    14.22000027  -1.74000001  52.02000046
C    11.54999924  -2.16999984  52.64999771
C    12.86999893  -2.40999985  52.95999908
C    13.27000046  -2.87999988  54.25000000
C    12.30999947  -3.28000021  55.15999603
C    10.95000076  -3.12999988  54.80999756
C    10.00000000  -3.77999997  55.65000153
C     8.69999981  -3.88000011  55.21999741
C     8.26000023  -3.14000010  54.09000015
C     9.15000057  -2.50000000  53.26000214
C    10.53999996  -2.48000002  53.59000397
C    14.65999985  -2.56999993  54.54000092
C    15.26000023  -1.90999997  53.44999695
C    16.61999893  -1.61000001  53.43999863
C     6.78999996  -3.30999994  53.79000092
H     6.47644854  -2.75415874  52.90635681
H    11.30000019  -1.67999995  51.70999908
H    12.61000061  -3.97000027  55.94999695
H    10.29999924  -4.25000000  56.59000015
H     8.01999950  -4.40000010  55.89000320
H     8.84000015  -2.17999983  52.27000427
H    17.05999947  -1.12000000  52.56999969
H     6.47000027  -4.33999968  53.57999802
H     6.25999975  -2.86999989  54.64000320
S    17.97000122  -3.26999998  56.79999924
C    20.62999916  -2.61000013  56.13999939
C    19.29999924  -2.63000011  55.80999756
C    18.88000107  -1.92000008  54.64000320
C    19.78000069  -1.22000003  53.86000061
C    21.17000198  -1.46000004  54.03999710
C    22.13999939  -1.02999997  53.08000183
C    23.48999977  -1.11000001  53.33000183
C    23.90000153  -1.75999999  54.52000046
C    23.01000214  -2.16000009  55.47999954
C    21.60000038  -2.06999993  55.26000214
C    17.43999863  -2.06999993  54.47000122
C    16.81999969  -2.69000006  55.59000015
C    15.44999981  -2.94999981  55.63999939
C    25.36000061  -2.16999984  54.59999847
H    25.83787155  -1.70639253  55.46302032
H    20.98999977  -3.12999988  57.02999878
H    19.34999847  -0.69000000  53.02000046
H    21.73999977  -0.63000000  52.15999985
H    24.30000114  -0.86000001  52.65999603
H    23.26999855  -2.69000006  56.39999771
H    15.06999969  -3.68000007  56.35000229
H    25.82999992  -1.84000003  53.67000198
H    25.62999916  -3.23000002  54.73999786
