96

S    17.48999977   1.75000000  60.04000092
C    20.17999840   2.09999990  59.27000046
C    18.90999985   1.65999997  58.97999573
C    18.60000038   1.11000001  57.70000076
C    19.61000061   1.00999999  56.76000214
C    20.95000076   1.38999999  57.01000214
C    22.00000000   1.29999995  56.05999756
C    23.29999924   1.59999990  56.39999771
C    23.61000061   2.05999994  57.70999908
C    22.57999802   2.16999984  58.61999893
C    21.21000099   1.94000006  58.31999969
C    17.17000008   0.88999999  57.51999664
C    16.46000099   1.18000007  58.70999908
C    15.06999969   1.11000001  58.73000336
C    25.06000137   2.21000004  58.09999847
H    25.39557457   1.43175054  58.78543091
H    20.39999962   2.37000012  60.30000305
H    19.45999908   0.46000001  55.83000183
H    21.86000061   0.93000001  55.04000092
H    24.04999924   1.47000003  55.63000107
H    22.82999992   2.49000001  59.61999893
H    14.55000019   1.59999990  59.55999756
H    25.71000099   2.16000009  57.21000290
H    25.22000122   3.25000000  58.41999817
S    13.96000004   0.19999999  55.05000305
C    11.31000042  -0.31000000  55.77999878
C    12.57999992   0.07000000  56.16000366
C    12.89000034   0.56999999  57.47000122
C    11.82000065   0.75999999  58.33000183
C    10.47999954   0.48999998  57.97999954
C     9.38000011   0.76999998  58.85000229
C     8.09000015   0.52999997  58.43000031
C     7.85000038  -0.03000000  57.15000153
C     8.89999962  -0.39999998  56.33999634
C    10.25000000  -0.11000000  56.69000244
C    14.32999992   0.69000000  57.62000275
C    15.05000019   0.39000002  56.44000244
C    16.43000031   0.50999999  56.38999939
C     6.43000031  -0.45000002  56.86999893
H     6.07467031   0.16827396  56.04563522
H    11.13999939  -0.68000007  54.77000427
H    11.97000027   0.99000001  59.38000107
H     9.53999996   1.08999991  59.86999893
H     7.23000002   0.79000002  59.02999878
H     8.64999962  -0.83999997  55.37000275
H    16.88999939   0.32000002  55.41999817
H     5.73999977  -0.35999998  57.71999741
H     6.53999996  -1.48000002  56.50000000
S    18.30999947   2.16999984  53.61000061
C    21.00000000   2.50999975  52.88000107
C    19.71999931   2.16999984  52.52999878
C    19.40999985   1.58999991  51.25999832
C    20.39999962   1.44999993  50.30000305
C    21.73000145   1.80000007  50.63999939
C    22.80999947   1.57000005  49.75000000
C    24.11999893   1.61000001  50.18000031
C    24.41999817   2.19000006  51.44000244
C    23.40999985   2.50999975  52.31999969
C    22.04999924   2.29999995  51.95000076
C    17.97000122   1.65000010  51.05999756
C    17.21999931   1.86000001  52.23999786
C    15.84000015   1.79000008  52.34000397
C    25.76000023   2.75999999  51.81000137
H    26.35528755   2.04423881  52.37694168
H    21.14000130   2.98000002  53.86000061
H    20.17999840   1.19999993  49.27000046
H    22.60999870   1.16999996  48.75999832
H    24.89999962   1.53999996  49.41999817
H    23.64999962   3.00999999  53.25000000
H    15.29000092   1.77999997  53.27999878
H    26.27000046   2.91000009  50.84999847
H    25.72999954   3.65000010  52.45999908
S    14.78000069   0.97000003  48.59000397
C    12.01000023   0.74000001  49.27000046
C    13.31999969   0.97999996  49.59999847
C    13.68000031   1.28000009  50.94999695
C    12.69999981   1.35000002  51.91999817
C    11.33999920   1.08000004  51.63999939
C    10.31999969   1.07000005  52.63000107
C     9.02000046   0.76999998  52.25999832
C     8.67999935   0.51999998  50.90999985
C     9.64999962   0.50999999  49.93000031
C    10.98999977   0.82000005  50.26000214
C    15.07999992   1.61000001  51.18000031
C    15.80999947   1.39999998  49.98000336
C    17.19000053   1.30999994  49.93999863
C     7.25000000   0.17000002  50.56000137
H     6.86522865   0.74715739  49.71920395
H    11.71000004   0.50999999  48.25000000
H    12.94000053   1.69000006  52.91999817
H    10.52000046   1.33000004  53.67000198
H     8.25000000   0.90999997  53.01000214
H     9.44000053   0.01000000  48.97999573
H    17.78000069   1.11000001  49.05000305
H     6.54999971   0.22000000  51.39999771
H     7.13000011  -0.88000000  50.27999878
