96

S    17.13000107   1.99000001  59.99000168
C    19.79999924   2.22000003  59.31999969
C    18.56999969   1.67999995  59.01000214
C    18.23999977   1.23000002  57.69000244
C    19.22000122   1.16999996  56.70999908
C    20.52000046   1.63000000  57.04999924
C    21.57999992   1.49000001  56.11999893
C    22.88000107   1.79000008  56.43000031
C    23.13999939   2.29999995  57.74000168
C    22.17000008   2.50000000  58.68999863
C    20.85000038   2.07999992  58.37999725
C    16.79999924   1.15999997  57.50000000
C    16.05999947   1.51999998  58.64999771
C    14.67000008   1.49000001  58.73000336
C    24.56000137   2.71000004  58.06999969
H    24.97085762   1.94495487  58.72879028
H    19.96999931   2.63999987  60.31000137
H    19.10000038   0.79000002  55.70000076
H    21.40000153   1.04999995  55.13999939
H    23.67000198   1.62000000  55.70999908
H    22.37999916   2.84999990  59.68999863
H    14.09999943   1.62000000  59.65000153
H    25.10000038   2.82000017  57.12999725
H    24.63000107   3.70000005  58.53000259
S    13.63000011   0.43000001  55.07999802
C    10.93999958  -0.07000000  55.87999725
C    12.20000076   0.41999999  56.12999725
C    12.50000000   1.01999998  57.39999771
C    11.51999950   1.12000000  58.36999893
C    10.18000031   0.79000002  58.06999969
C     9.13000011   0.92000002  59.02999878
C     7.83999968   0.59000003  58.68999863
C     7.51999950   0.13000000  57.37999725
C     8.53999996  -0.19000000  56.52000046
C     9.89000034   0.14999999  56.81000137
C    13.92000008   1.28000009  57.56999969
C    14.67000008   1.00000000  56.39999771
C    16.05999947   0.87000000  56.35000229
C     6.09000015  -0.27000001  57.06999969
H     5.59844208   0.44240299  56.40746307
H    10.69000053  -0.44000000  54.88999939
H    11.87000084   1.58000004  59.29000092
H     9.35999966   1.36000013  59.99000168
H     7.07999992   0.79000002  59.43000031
H     8.34000015  -0.46999997  55.48999786
H    16.55999947   0.55000001  55.44000244
H     5.63000011  -0.39000002  58.06000137
H     5.96000004  -1.29999995  56.70000076
S    17.89999962   2.42000008  53.79000092
C    20.56999969   2.73999977  52.95999908
C    19.29999924   2.26999998  52.70999908
C    18.89999962   1.67999995  51.46999741
C    19.88000107   1.71000004  50.50000000
C    21.21999931   2.14000010  50.70000076
C    22.26000023   1.97000003  49.75000000
C    23.59999847   2.15000010  50.00000000
C    23.90999985   2.86000013  51.18999863
C    22.93000031   3.15000010  52.11000061
C    21.57999992   2.73000002  51.95999908
C    17.47999954   1.35000002  51.38999939
C    16.79000092   1.80000007  52.55000305
C    15.42000008   2.01999998  52.56999969
C    25.29999924   3.42999983  51.40999603
H    25.84089470   2.77523279  52.09323502
H    20.85000038   3.14000010  53.93000031
H    19.69000053   1.28000009  49.52000046
H    22.11000061   1.53999996  48.75999832
H    24.34999847   1.98000002  49.22999954
H    23.22000122   3.55999994  53.06999969
H    14.98000050   2.38000011  53.48999786
H    25.66999817   3.52999973  50.38000107
H    25.29999924   4.44999981  51.81999969
S    14.32999992   0.74000001  48.92000198
C    11.64000034   0.61000001  49.56999969
C    12.89999962   1.00999999  49.94999695
C    13.26000023   1.48000002  51.25000000
C    12.22000027   1.67999995  52.14000320
C    10.93000031   1.18000007  51.81999969
C     9.94999981   1.12000000  52.85999680
C     8.71000004   0.64999998  52.48000336
C     8.36000061   0.32999998  51.14999771
C     9.25000000   0.43000001  50.11000061
C    10.57999992   0.71000004  50.51000214
C    14.68999958   1.71000004  51.40999603
C    15.38000011   1.26999998  50.25000000
C    16.75000000   1.07000005  50.22999573
C     6.90000010   0.08000001  50.83000183
H     6.43546772   0.80181164  50.15821457
H    11.49000072   0.14999999  48.60000229
H    12.43999958   2.13000011  53.09999847
H    10.01000023   1.38000000  53.90999603
H     7.96000004   0.78000003  53.26000214
H     9.02000046   0.23000000  49.06000137
H    17.35000038   0.85000002  49.34000015
H     6.25999975   0.05000000  51.72000122
H     6.77999973  -0.87000000  50.27999878
