96

S    17.32999992   1.39999998  59.97000122
C    19.96999931   1.81999993  59.36999893
C    18.78000069   1.25999999  58.95999908
C    18.46999931   0.90000004  57.62000275
C    19.50000000   0.93000001  56.70000076
C    20.76999855   1.46000004  57.06999969
C    21.83000183   1.33000004  56.12999725
C    23.06999969   1.74000001  56.55000305
C    23.35000038   2.20000005  57.85999680
C    22.34999847   2.24000001  58.80000305
C    21.02000046   1.92000008  58.40999985
C    17.02999878   0.76999998  57.44999695
C    16.25000000   1.07000005  58.60000229
C    14.86999989   1.13999999  58.75000000
C    24.77999878   2.38999987  58.29000092
H    25.18475723   1.72960520  59.05691147
H    20.03000069   2.19000006  60.38999939
H    19.32999992   0.64999998  55.66999817
H    21.67000008   0.90999997  55.13999939
H    23.92000008   1.58999991  55.89000320
H    22.63000107   2.33999991  59.85000229
H    14.40999985   1.21000004  59.72999954
H    25.48000145   2.40999985  57.43999863
H    24.82000160   3.35999990  58.79000092
S    13.81000042   0.06000000  55.06999969
C    11.11999989  -0.14000000  55.79000092
C    12.43000031   0.04000000  56.18000031
C    12.71000004   0.67000002  57.43000031
C    11.68000031   0.97000003  58.30999756
C    10.32999992   0.69000000  57.98999786
C     9.30999947   0.85000002  58.96999741
C     8.01000023   0.56999999  58.57999802
C     7.69999981   0.01000000  57.31999969
C     8.69000053  -0.05000000  56.36000061
C    10.06000042   0.20999999  56.66999817
C    14.14999962   0.82000005  57.58999634
C    14.88000011   0.56000000  56.39999771
C    16.25000000   0.34999999  56.37000275
C     6.25000000  -0.17999999  56.93999863
H     5.97250032   0.25403821  55.97942352
H    10.88000107  -0.38000000  54.75999832
H    11.90000057   1.38000000  59.29000092
H     9.61000061   1.29999995  59.91000366
H     7.26999998   0.88999999  59.31000137
H     8.36000061  -0.25999999  55.34999847
H    16.72999954  -0.11000000  55.51000214
H     5.55000019   0.25999999  57.65999603
H     6.03999996  -1.25000000  56.90999985
S    18.01000023   2.17999983  53.82999802
C    20.68000031   2.38999987  53.04999924
C    19.40000153   2.00000000  52.74000168
C    19.00000000   1.56000006  51.43000031
C    20.00999832   1.29999995  50.51000214
C    21.34000015   1.70000005  50.77000046
C    22.34999847   1.69000006  49.77000427
C    23.62999916   2.11999989  50.00999832
C    23.97000122   2.66999984  51.27999878
C    23.00000000   2.70000005  52.25999832
C    21.68000031   2.21000004  52.06999969
C    17.56000137   1.61000001  51.26999664
C    16.88999939   1.90999997  52.48000336
C    15.50000000   1.81999993  52.48000336
C    25.36000061   3.12999988  51.63999939
H    25.80725861   2.42006493  52.33573914
H    20.92000008   2.79000020  54.02999878
H    19.78000069   1.04999995  49.47999954
H    22.04000092   1.34000003  48.77999878
H    24.37000084   2.14000010  49.22000122
H    23.19999886   3.21000004  53.20000076
H    14.93999958   1.90999997  53.40000153
H    25.89999962   3.08999991  50.68000031
H    25.34000015   4.18000031  51.93999863
S    14.40999985   0.71000004  48.81000137
C    11.72999954   0.59999996  49.62999725
C    13.03999996   0.87000000  49.93000031
C    13.35999966   1.38000000  51.23000336
C    12.38999939   1.50000000  52.21000290
C    11.03000069   1.25000000  51.93000031
C    10.06000042   1.26999998  52.95999908
C     8.75000000   0.96000004  52.63999939
C     8.36999989   0.54000002  51.33999634
C     9.35000038   0.45000002  50.38000107
C    10.72000027   0.79000002  50.59999847
C    14.78999996   1.63000000  51.29000092
C    15.47999954   1.31999993  50.08999634
C    16.87000084   1.30999994  50.07999802
C     6.90999985   0.39000002  50.97999954
H     6.60450697   0.96546328  50.10614777
H    11.47999954   0.19000000  48.64999771
H    12.75000000   1.58999991  53.23999786
H    10.36999893   1.59999990  53.95000076
H     7.97999954   0.92000002  53.40000153
H     9.01000023   0.34000003  49.36000061
H    17.38999939   1.00999999  49.18000031
H     6.39999962   0.61000001  51.93000031
H     6.76999998  -0.69000000  50.83000183
