96

S    17.15999985   1.64000010  60.27000046
C    19.88000107   1.90999997  59.69999695
C    18.63000107   1.52999997  59.27999878
C    18.36000061   1.08999991  57.94000244
C    19.31999969   1.13999999  56.95000076
C    20.58000183   1.62000000  57.38999939
C    21.65999985   1.61000001  56.46999741
C    22.96999931   1.87000012  56.83000183
C    23.23999786   2.34999990  58.13000107
C    22.22999954   2.39999986  59.06999969
C    20.89999962   2.05999994  58.72000122
C    16.92000008   0.94999999  57.71999741
C    16.15999985   1.05999994  58.90999603
C    14.78000069   0.94999999  58.95999908
C    24.63000107   2.84999990  58.46000290
H    25.15597725   2.11078715  59.06416702
H    20.17999840   2.15000010  60.70999908
H    19.20999908   0.69999999  55.97000122
H    21.45000076   1.19999993  55.47999954
H    23.78000069   1.82999992  56.11000061
H    22.50000000   2.66999984  60.08999634
H    14.19999981   1.10000002  59.86999893
H    25.17000008   3.00000000  57.51999664
H    24.59000015   3.77999997  59.03999710
S    13.86999989   0.09999999  55.15999603
C    11.14999962  -0.44000000  55.86000061
C    12.38000011   0.12000000  56.11999893
C    12.69000053   0.46000001  57.47000122
C    11.69999981   0.46000001  58.43999863
C    10.36999893   0.11000000  58.13000107
C     9.27999973   0.25000000  59.03999710
C     7.99000025  -0.00000000  58.62999725
C     7.73000002  -0.46000001  57.30999756
C     8.76999950  -0.79000002  56.46999741
C    10.08999920  -0.38000000  56.79999924
C    14.11000061   0.64000005  57.77000046
C    14.85000038   0.56999999  56.56999969
C    16.22999954   0.73000002  56.52000046
C     6.28999996  -0.82000005  57.01000214
H     5.83538103  -0.04572719  56.39200211
H    11.05000019  -0.81000000  54.84000397
H    11.92000008   0.86000001  59.41999817
H     9.56999969   0.55000001  60.04000092
H     7.22000027   0.02000000  59.40000153
H     8.65999985  -1.36000013  55.54999924
H    16.84000015   0.61000001  55.63000107
H     5.71000004  -0.82999998  57.94000244
H     6.28999996  -1.72999990  56.39999771
S    18.26000023   2.00000000  53.83999634
C    20.86000061   2.61999989  53.18999863
C    19.68000031   2.02999997  52.77999878
C    19.42000008   1.65000010  51.42000198
C    20.43000031   1.84000003  50.50000000
C    21.70999908   2.30999994  50.89000320
C    22.79999924   2.31999993  49.97000122
C    24.04000092   2.75000000  50.35999680
C    24.23000145   3.30999994  51.65000153
C    23.12999916   3.45000005  52.47000122
C    21.90000153   2.76999998  52.23999786
C    17.98999977   1.50000000  51.20999908
C    17.26000023   1.61000001  52.42000198
C    15.88000107   1.61000001  52.52999878
C    25.62000084   3.65999985  52.11999893
H    25.91286087   2.98856068  52.92715454
H    20.95999908   3.05000019  54.18000031
H    20.31999969   1.43000007  49.50000000
H    22.53999901   2.04999995  48.95000076
H    24.90999985   2.48000002  49.78000259
H    23.18000031   3.93000007  53.43999863
H    15.43000031   1.84000003  53.48999786
H    26.31999969   3.61000013  51.27999878
H    25.50000000   4.69000006  52.50000000
S    14.70000076   1.19000006  48.80000305
C    12.01000023   0.82000005  49.40000153
C    13.27999973   1.05999994  49.86000061
C    13.69999981   1.36000013  51.19999695
C    12.68000031   1.47000003  52.11000061
C    11.35000038   1.12000000  51.75000000
C    10.34000015   1.18000007  52.74000168
C     9.02000046   0.93000001  52.43999863
C     8.67999935   0.69999999  51.07999802
C     9.63000011   0.59000003  50.08999634
C    11.00000000   0.79000002  50.38999939
C    15.14999962   1.47000003  51.33999634
C    15.86999989   1.36999989  50.12000275
C    17.26000023   1.41000009  50.01999664
C     7.23000002   0.35999998  50.84000015
H     6.70432377   1.05616581  50.18645859
H    11.84999943   0.75999999  48.31999969
H    12.94000053   1.50999999  53.16999817
H    10.59999943   1.42000008  53.76999664
H     8.27999973   0.93000001  53.23999786
H     9.38000011   0.32999998  49.06000137
H    17.80999947   1.26999998  49.09000015
H     6.76000023   0.22000000  51.81999969
H     7.16000032  -0.64000005  50.38999939
