96

S    17.64000130   2.09999990  60.11000061
C    20.36999893   2.25999999  59.55999756
C    19.11000061   1.93000007  59.13000107
C    18.79999924   1.56000006  57.77999878
C    19.85999870   1.38999999  56.90999985
C    21.18999863   1.71000004  57.27000427
C    22.26000023   1.75000000  56.32999802
C    23.52999878   2.13000011  56.69000244
C    23.71000099   2.66999984  57.98999786
C    22.70999908   2.69000006  58.94000244
C    21.40999985   2.20000005  58.60000229
C    17.35999870   1.51999998  57.54000092
C    16.61000061   1.80999994  58.69999695
C    15.21999931   1.74000001  58.72000122
C    25.10999870   3.07999992  58.39000320
H    25.44408989   2.53266263  59.27142715
H    20.52000046   2.73000002  60.52999878
H    19.69000053   1.25999999  55.84999847
H    22.01999855   1.43000007  55.31999969
H    24.36000061   1.99000001  56.00999832
H    22.92000008   2.99000001  59.95999908
H    14.67000008   1.87999988  59.64000320
H    25.73999786   2.73999977  57.56000137
H    25.15000153   4.18000031  58.43999863
S    14.26000023   0.55000001  55.04000092
C    11.64999962   0.08000001  55.73999786
C    12.82999992   0.69000000  56.07999802
C    13.12999916   1.19000006  57.38999939
C    12.10999966   1.19000006  58.31999969
C    10.84000015   0.64000005  58.02000046
C     9.82999992   0.64000005  59.02999878
C     8.60999966   0.09000000  58.70999908
C     8.34999943  -0.50999999  57.44999695
C     9.31999969  -0.43000001  56.47999573
C    10.64000034   0.03000000  56.73999786
C    14.55999947   1.43999994  57.51999664
C    15.29999924   1.11000001  56.36000061
C    16.69000053   1.07000005  56.39999771
C     6.89000034  -0.75000000  57.12999725
H     6.63269234  -0.49983990  56.10076904
H    11.44000053  -0.34000003  54.75999832
H    12.28000069   1.64000010  59.29999924
H     9.96999931   1.19000006  59.94999695
H     7.71000004   0.43000001  59.22999954
H     9.11000061  -0.75999999  55.45999908
H    17.19000053   0.81000000  55.47000122
H     6.23000050  -0.20999999  57.81999969
H     6.76999998  -1.80000007  57.43999863
S    14.75000000  -1.58999991  52.04999924
C    12.15999985  -2.05999994  52.84999847
C    13.48999977  -2.28999996  53.08000183
C    14.00000000  -2.94000006  54.25000000
C    13.02000046  -3.35000014  55.13000107
C    11.61999893  -3.24000001  54.94999695
C    10.62999916  -3.86000013  55.77000046
C     9.32999992  -4.02999973  55.35999680
C     8.89000034  -3.40999985  54.15999985
C     9.84000015  -2.79999995  53.36999893
C    11.18999958  -2.59000015  53.74000168
C    15.43000031  -2.72000027  54.40000153
C    15.95999908  -2.04999995  53.26000214
C    17.30999947  -1.71000004  53.27999878
C     7.55000019  -3.79999995  53.59000397
H     7.15878868  -3.28075576  52.71511078
H    11.76000023  -1.65999997  51.91999817
H    13.35000038  -3.86999989  56.03000259
H    10.90000057  -4.11000013  56.79000092
H     8.61999989  -4.69000006  55.84999847
H     9.61999989  -2.56999993  52.32999802
H    17.68000031  -1.01999998  52.51999664
H     7.57000017  -4.86000013  53.29000092
H     6.88000011  -3.68000007  54.45000076
S    18.75000000  -2.84999990  56.81000137
C    21.37000084  -2.00000000  56.12999725
C    20.03999901  -2.13000011  55.81999969
C    19.55999947  -1.66999996  54.55999756
C    20.38999939  -1.10000002  53.61999893
C    21.77000046  -1.00999999  53.92000198
C    22.79999924  -0.68000007  52.98999786
C    24.13999939  -0.59000003  53.33000183
C    24.59000015  -0.92000002  54.62999725
C    23.65999985  -1.38999999  55.54000092
C    22.27999878  -1.43999994  55.20000076
C    18.15000153  -1.99000001  54.36000061
C    17.57999992  -2.61999989  55.50000000
C    16.25000000  -3.03999996  55.47999954
C    26.04999924  -0.75000000  54.95999908
H    26.26314354  -1.27575469  55.89072418
H    21.77000046  -2.30999994  57.09000015
H    20.03000069  -0.52999997  52.76000214
H    22.62000084  -0.48999998  51.93999863
H    24.75000000  -0.12000000  52.56999969
H    23.90999985  -1.80000007  56.51000214
H    15.88000107  -3.51000023  56.38999939
H    26.19999886   0.32000002  55.13999939
H    26.71999931  -1.00000000  54.12000275
