96

S    16.72999954   1.36000013  60.24000168
C    19.47000122   1.35000002  59.64000320
C    18.17000008   1.14999998  59.22999954
C    17.86999893   0.68000007  57.90999985
C    18.94000053   0.37000000  57.09000015
C    20.29000092   0.52999997  57.47000122
C    21.37000084   0.34000003  56.56999969
C    22.67000008   0.54000002  56.95999908
C    22.92000008   1.04999995  58.26000214
C    21.90000153   1.34000003  59.13999939
C    20.55999947   1.00000000  58.81000137
C    16.44000053   0.52999997  57.70999908
C    15.70000076   0.83999997  58.88000107
C    14.30999947   0.83999997  58.81999969
C    24.34999847   1.36999989  58.61999893
H    24.74062157   1.02909386  59.57880020
H    19.63999939   1.97000003  60.51000214
H    18.67000008   0.09000000  56.06999969
H    21.24000168   0.08000001  55.52000046
H    23.47999954   0.45000002  56.24000168
H    22.06999969   1.89999998  60.06000137
H    13.71999931   1.04999995  59.69999695
H    25.10000038   1.11000001  57.85999680
H    24.33000183   2.47000003  58.61999893
S    13.40000057  -0.48999998  55.15999603
C    10.67000008  -0.63000000  55.86000061
C    11.95000076  -0.17999999  56.12999725
C    12.18000031   0.51999998  57.36000061
C    11.13999939   0.85000002  58.20000076
C     9.82999992   0.34999999  58.00000000
C     8.71000004   0.59999996  58.83999634
C     7.40000010   0.28999999  58.55999756
C     7.18999958  -0.37000000  57.32999802
C     8.25000000  -0.64000005  56.49000168
C     9.61999989  -0.34999999  56.76000214
C    13.60000038   0.50000000  57.65999603
C    14.35999966   0.09000000  56.53999710
C    15.73999977   0.20999999  56.53999710
C     5.79999971  -0.90000004  57.02999878
H     5.30928946  -0.39506614  56.19792557
H    10.43000031  -1.19000006  54.95999908
H    11.36999989   1.28999996  59.18000031
H     8.86999989   1.10000002  59.79000092
H     6.50000000   0.48999998  59.13000107
H     7.94000053  -1.14999998  55.58000183
H    16.46999931   0.00000000  55.76000214
H     5.05999994  -0.90999997  57.84000015
H     5.96000004  -1.97000003  56.88000107
S    17.12000084   1.54999995  53.90999603
C    19.84000015   1.76999998  53.15999985
C    18.54999924   1.39999998  52.87000275
C    18.20000076   0.92000002  51.56000137
C    19.19000053   0.74000001  50.61000061
C    20.52000046   1.14999998  50.86999893
C    21.61999893   0.88000000  50.00999832
C    22.89999962   1.25999999  50.34999847
C    23.21000099   1.79000008  51.63000107
C    22.18000031   1.95999992  52.52999878
C    20.82999992   1.75999999  52.14000320
C    16.77000046   0.79000002  51.38000107
C    16.04999924   1.16999996  52.54000092
C    14.67000008   1.28999996  52.57999802
C    24.60000038   2.26999998  51.97000122
H    25.14096451   1.59379458  52.63196945
H    20.13000107   2.10999990  54.15000153
H    18.93000031   0.24000001  49.68999863
H    21.37000084   0.45000002  49.05000305
H    23.75000000   1.10000002  49.68999863
H    22.25000000   2.16000009  53.59000397
H    14.14000034   1.58999991  53.47999954
H    25.19000053   2.39999986  51.04999924
H    24.54000092   3.28999996  52.36000061
S    13.55999947   0.27000001  48.88000107
C    10.84000015   0.28999999  49.59000015
C    12.15999985   0.43000001  49.95999908
C    12.58999920   0.82000005  51.26999664
C    11.59999943   1.07000005  52.21000290
C    10.22999954   0.83999997  51.95000076
C     9.25000000   1.00000000  52.97999954
C     7.96000004   0.65999997  52.65999603
C     7.59999990   0.29999998  51.32999802
C     8.52000046   0.14999999  50.33000183
C     9.86999989   0.51999998  50.59000015
C    14.04000092   0.90000004  51.38999939
C    14.72000027   0.59999996  50.18000031
C    16.10000038   0.54000002  50.17000198
C     6.21000004  -0.25000000  51.07999802
H     5.66213894   0.33343661  50.34003067
H    10.64000034  -0.14000000  48.61999893
H    11.95000076   1.30999994  53.20999908
H     9.61000061   1.26999998  53.96999741
H     7.23999977   0.54000002  53.46000290
H     8.34000015  -0.48999998  49.45999908
H    16.60000038   0.28000000  49.23999786
H     5.73000002  -0.25000000  52.06999969
H     6.35999966  -1.28000009  50.76000214
