96

S    17.53999901   1.52999997  59.86999893
C    20.22000122   1.98000002  59.23999786
C    18.98999977   1.52999997  58.83999634
C    18.71000099   1.03999996  57.52999878
C    19.71999931   1.01999998  56.59000015
C    21.02999878   1.42000008  56.95999908
C    22.11000061   1.43999994  56.03000259
C    23.38999939   1.75999999  56.39999771
C    23.54999924   2.25000000  57.71999741
C    22.56000137   2.38000011  58.66000366
C    21.27000046   1.89999998  58.29000092
C    17.29999924   0.69999999  57.39999771
C    16.50000000   1.00000000  58.53000259
C    15.11000061   1.00999999  58.48999786
C    24.96999931   2.64999986  58.06000137
H    25.34831810   2.11464405  58.93084335
H    20.45999908   2.49000001  60.17000198
H    19.50000000   0.68000007  55.58000183
H    21.94000053   1.12000000  55.00000000
H    24.23000145   1.57000005  55.73999786
H    22.73999977   2.66999984  59.68999863
H    14.55999947   1.33000004  59.36000061
H    25.69000053   2.42000008  57.27000427
H    25.06000137   3.72000003  58.31999969
S    14.11999893  -0.28000000  54.93000031
C    11.33999920  -0.28999999  55.54000092
C    12.64000034   0.02000000  55.86999893
C    12.97000027   0.52999997  57.16999817
C    11.97000027   0.79000002  58.08000183
C    10.64000034   0.39999998  57.81000137
C     9.52999973   0.51999998  58.68999863
C     8.26000023   0.16000001  58.31999969
C     7.94000053  -0.39000002  57.04999924
C     8.98999977  -0.50000000  56.16000366
C    10.32999992  -0.19000000  56.52999878
C    14.42000008   0.62000000  57.34000397
C    15.21000004   0.19000000  56.25000000
C    16.60000038   0.25000000  56.26999664
C     6.54999971  -0.78000003  56.59999847
H     6.12928629  -0.11684084  55.84414291
H    11.26000023  -0.82000005  54.59000015
H    12.15999985   1.21000004  59.06000137
H     9.76000023   0.94999999  59.66999817
H     7.39000034   0.35999998  58.94000244
H     8.89000034  -0.87000000  55.14999771
H    17.13000107   0.05000000  55.34000015
H     5.96000004  -0.67000002  57.51999664
H     6.50000000  -1.85000002  56.37000275
S    18.00000000   2.25000000  53.88000107
C    20.68000031   2.46000004  53.18000031
C    19.40999985   2.06999993  52.81999969
C    19.11000061   1.53999996  51.52000046
C    20.15000153   1.34000003  50.63000107
C    21.47999954   1.64000010  50.98999786
C    22.60000038   1.35000002  50.15999603
C    23.88999939   1.61000001  50.56999969
C    24.10000038   2.36000013  51.76000214
C    23.09000015   2.50999975  52.68000031
C    21.76000214   2.15000010  52.30999756
C    17.68000031   1.26999998  51.45000076
C    16.94000053   1.67999995  52.57999802
C    15.54999924   1.66999996  52.63000107
C    25.51000214   2.66999984  52.21000290
H    25.98076248   1.80694079  52.68076324
H    20.86999893   2.99000001  54.10999680
H    20.03000069   0.87000000  49.65999985
H    22.46000099   0.93000001  49.16999817
H    24.77000046   1.11000001  50.18000031
H    23.19999886   2.94000006  53.67000198
H    15.10000038   1.93000007  53.59000397
H    26.05999947   3.10999990  51.37000275
H    25.34000015   3.52999973  52.87000275
S    14.55999947   0.25999999  49.00000000
C    11.90999985  -0.19000000  49.81999969
C    13.15999985   0.32000002  50.08999634
C    13.38999939   0.93999994  51.36000061
C    12.34000015   1.08000004  52.25000000
C    11.00999928   0.71000004  51.91999817
C     9.89000034   0.97999996  52.76000214
C     8.60000038   0.79000002  52.30999756
C     8.39999962   0.20999999  51.03000259
C     9.47000027  -0.31000000  50.33000183
C    10.80999947  -0.01000000  50.68999863
C    14.80999947   1.22000003  51.52999878
C    15.52000046   0.82999998  50.37000275
C    16.90999985   0.78000003  50.38000107
C     6.94999981  -0.07000000  50.70999908
H     6.53662014   0.46454310  49.85473251
H    11.72999954  -0.69000000  48.87000275
H    12.46999931   1.57000005  53.20999908
H    10.15999985   1.38000000  53.73000336
H     7.71000004   1.00999999  52.88999939
H     9.23999977  -0.76999998  49.36999893
H    17.42000008   0.44000000  49.48999786
H     6.38999987   0.22000000  51.60999680
H     6.67999983  -1.13000000  50.61999893
