96

S    16.73999977   1.75999999  59.93999863
C    19.40000153   2.13000011  59.36999893
C    18.18000031   1.70000005  58.90999603
C    17.92000008   1.13000000  57.61000061
C    18.96999931   1.10000002  56.70999908
C    20.23999977   1.46000004  57.19999695
C    21.38000107   1.15999997  56.38999939
C    22.65000153   1.50000000  56.77999878
C    22.84000015   2.25999999  57.97000122
C    21.81999969   2.43000007  58.88000107
C    20.52000046   1.98000002  58.50999832
C    16.47999954   0.97999996  57.43999863
C    15.71000004   1.38000000  58.54999924
C    14.32000065   1.39999998  58.59000397
C    24.26000214   2.66999984  58.29000092
H    24.77784920   1.96062040  58.93553543
H    19.43000031   2.68000007  60.31000137
H    18.78000069   0.59999996  55.76000214
H    21.21999931   0.71999997  55.40999985
H    23.46999931   1.43000007  56.07999802
H    21.97000122   2.80999994  59.87999725
H    13.78000069   1.65000010  59.50000000
H    24.79999924   2.89000010  57.35000229
H    24.18999863   3.63000011  58.80000305
S    13.23999977   0.34000003  54.95999908
C    10.47999954   0.38000000  55.59999847
C    11.78999996   0.67000002  55.93000031
C    12.13999939   1.05999994  57.25999832
C    11.14999962   1.12000000  58.22999954
C     9.81000042   0.85000002  57.87000275
C     8.82000065   0.94999999  58.88999939
C     7.48000050   0.71999997  58.64999771
C     7.13000011   0.28000000  57.35000229
C     8.06999969   0.08000001  56.37000275
C     9.42000008   0.50000000  56.52999878
C    13.57999992   1.10000002  57.43000031
C    14.34000015   0.74000001  56.29000092
C    15.72999954   0.61000001  56.31999969
C     5.72000027  -0.13000000  56.97999954
H     5.36524296   0.39504075  56.09310532
H    10.29999924  -0.25000000  54.73999786
H    11.38000011   1.39999998  59.25000000
H     9.19000053   1.15999997  59.88999939
H     6.71999979   0.83999997  59.41999817
H     7.92000008  -0.46000001  55.44000244
H    16.15999985   0.37000000  55.34999847
H     5.00000000  -0.06000000  57.80000305
H     5.79999971  -1.19000006  56.70999908
S    17.39999962   2.03999996  53.80000305
C    20.17999840   2.24000001  53.26000214
C    18.89000130   1.98000002  52.84999847
C    18.59000015   1.62000000  51.50000000
C    19.57999992   1.65000010  50.52999878
C    20.90999985   1.92000008  50.93000031
C    22.01000023   1.63000000  50.07999802
C    23.29999924   1.80000007  50.52000046
C    23.54999924   2.46000004  51.75000000
C    22.52000046   2.73000002  52.62000275
C    21.19999886   2.34999990  52.27000427
C    17.19000053   1.29999995  51.27999878
C    16.39000130   1.72999990  52.36999893
C    15.00000000   1.86000001  52.36000061
C    24.93999863   2.87999988  52.16999817
H    25.36752319   2.17458534  52.88253784
H    20.38000107   2.47000003  54.29999924
H    19.47000122   1.34000003  49.48999786
H    21.83000183   1.26999998  49.06999969
H    24.06999969   1.29999995  49.93999863
H    22.76000023   3.08999991  53.61999893
H    14.48999977   2.00000000  53.30999756
H    25.65999985   2.86999989  51.33999634
H    24.79999924   3.89999986  52.54000092
S    14.01000023   0.52999997  48.80000305
C    11.26000023   0.69000000  49.29000092
C    12.53999901   0.99000001  49.68000031
C    12.84000015   1.44999993  51.00000000
C    11.78999996   1.75000000  51.86000061
C    10.47999954   1.36999989  51.50000000
C     9.44999981   1.34000003  52.49000168
C     8.14000034   1.07000005  52.16999817
C     7.86000013   0.69000000  50.83000183
C     8.82999992   0.56000000  49.86999893
C    10.17000008   0.90000004  50.17000198
C    14.27999973   1.51999998  51.20999908
C    15.06999969   1.05999994  50.13000107
C    16.45000076   0.93000001  50.14999771
C     6.46000004   0.24000001  50.47999954
H     6.05482054   0.65228802  49.55590820
H    11.05999947   0.34000003  48.27999878
H    11.95000076   2.09000015  52.88000107
H     9.68000031   1.58000004  53.52000427
H     7.40000010   1.18000007  52.95999908
H     8.60999966   0.16000001  48.88000107
H    16.98999977   0.68000007  49.25000000
H     5.77000046   0.50999999  51.29000092
H     6.50000000  -0.86000001  50.50000000
