96

S    17.02999878   1.49000001  59.92000198
C    19.68000031   1.62000000  59.13000107
C    18.39999962   1.23000002  58.81000137
C    18.06999969   0.71999997  57.51999664
C    19.05999947   0.64999998  56.56000137
C    20.38000107   1.02999997  56.90999985
C    21.47999954   0.82000005  56.03000259
C    22.77000046   1.01999998  56.45999908
C    23.06999969   1.76999998  57.63000107
C    22.03000069   2.10999990  58.46000290
C    20.72999954   1.61000001  58.18000031
C    16.61999893   0.55000001  57.47000122
C    15.92000008   0.94999999  58.63999939
C    14.52999973   0.93999994  58.68999863
C    24.48999786   2.14000010  58.02000046
H    24.98682785   1.41605031  58.66587830
H    19.73999977   2.11999989  60.10000229
H    18.76000023   0.27000001  55.59000015
H    21.25999832   0.34000003  55.07999802
H    23.57000160   0.81000000  55.75000000
H    22.11999893   2.69000006  59.36999893
H    14.06000042   1.19999993  59.62999725
H    25.05000114   2.28999996  57.09000015
H    24.53000069   3.03999996  58.62999725
S    13.40000057   0.20999999  54.94999695
C    10.70000076  -0.02000000  55.58000183
C    11.97000027   0.28999999  56.00000000
C    12.31999969   0.51999998  57.36000061
C    11.30000019   0.57999998  58.29000092
C     9.96000004   0.32999998  57.90000153
C     8.93000031   0.37000000  58.88000107
C     7.62000036   0.14999999  58.54999924
C     7.31999969  -0.17999999  57.19999695
C     8.30000019  -0.37000000  56.25000000
C     9.63999939  -0.00000000  56.52999878
C    13.76000023   0.63000000  57.56999969
C    14.47000027   0.38000000  56.36000061
C    15.85999966   0.25999999  56.33999634
C     5.86000013  -0.28000000  56.84000015
H     5.63941431   0.44579831  56.05727386
H    10.54999924  -0.44000000  54.59000015
H    11.51000023   0.69999999  59.34999847
H     9.19999981   0.75000000  59.86999893
H     6.85999966   0.39999998  59.29000092
H     8.07999992  -0.63000000  55.21999741
H    16.31000137   0.13000000  55.35999680
H     5.26000023  -0.02000000  57.72999573
H     5.71000004  -1.33000004  56.58000183
S    17.48999977   2.07999992  53.69999695
C    20.22000122   2.27999997  53.13999939
C    18.97999954   1.80000007  52.77999878
C    18.60999870   1.29999995  51.49000168
C    19.63000107   1.07000005  50.59000015
C    20.95000076   1.46000004  50.91999817
C    21.97999954   1.48000002  49.93000031
C    23.25000000   1.92000008  50.21999741
C    23.59000015   2.40999985  51.51000214
C    22.55000114   2.56999993  52.39999771
C    21.24000168   2.05999994  52.18999863
C    17.18000031   1.25999999  51.20999908
C    16.43000031   1.64000010  52.35000229
C    15.05000019   1.70000005  52.31999969
C    24.96999931   2.89999986  51.86999893
H    25.46063614   2.16049027  52.50284958
H    20.36999893   2.86000013  54.05000305
H    19.42000008   0.62000000  49.61999893
H    21.70000076   0.97000003  49.02000046
H    23.97000122   2.00000000  49.40000153
H    22.70999908   3.24000001  53.25000000
H    14.50000000   2.29999995  53.04000092
H    25.51000214   3.10999990  50.93999863
H    24.93000031   3.88000011  52.36999893
S    14.21000004   0.19000000  48.74000168
C    11.39999962   0.25999999  49.31999969
C    12.71999931   0.54000002  49.61999893
C    13.02000046   1.05999994  50.91999817
C    11.98999977   1.38000000  51.77999878
C    10.64000034   1.02999997  51.52999878
C     9.55999947   1.19999993  52.44999695
C     8.30999947   0.68000007  52.19999695
C     8.02999973   0.17999999  50.90000153
C     8.98999977   0.16000001  49.92000198
C    10.34000015   0.48000002  50.22999573
C    14.45000076   1.16999996  51.17000198
C    15.24000072   0.64000005  50.11000061
C    16.62999916   0.69000000  50.05000305
C     6.65999985  -0.39000002  50.59000015
H     6.30360794   0.19448319  49.74178696
H    11.13000011  -0.19000000  48.36999893
H    12.20000076   1.85000002  52.74000168
H     9.68000031   1.85000002  53.30999756
H     7.59000015   0.69999999  53.01000214
H     8.76999950  -0.16000001  48.89999771
H    17.13000107   0.35999998  49.13999939
H     5.98000002  -0.35999998  51.45000076
H     6.80999994  -1.42000008  50.24000168
