96

S    18.06999969   1.61000001  60.30000305
C    20.76000023   1.93000007  59.41999817
C    19.44000053   1.61000001  59.18000031
C    19.05999947   1.25000000  57.84000015
C    19.98999977   1.25999999  56.81000137
C    21.35000038   1.47000003  57.11999893
C    22.37999916   1.43000007  56.12999725
C    23.69999886   1.64000010  56.45000076
C    24.07999992   1.95999992  57.78999710
C    23.12999916   2.10999990  58.76999664
C    21.77999878   1.80999994  58.44999695
C    17.61999893   1.04999995  57.76000214
C    16.93000031   1.31999993  58.96999741
C    15.53999996   1.44999993  59.02000046
C    25.43000031   2.59999990  57.97000122
H    25.89163589   2.02473164  58.77253342
H    21.07999992   2.20000005  60.43000031
H    19.68000031   0.97000003  55.80999756
H    22.13000107   1.43000007  55.06999969
H    24.40000153   1.87000012  55.65999985
H    23.28000069   2.40999985  59.80999756
H    15.10000038   1.80000007  59.94999695
H    26.01000023   2.71000004  57.04000092
H    25.12000084   3.63000011  58.15999985
S    14.45000076   0.74000001  55.28999710
C    11.72999954   0.46000001  55.94999695
C    13.01000023   0.79999995  56.31999969
C    13.35999966   1.18000007  57.65999603
C    12.31999969   1.31999993  58.55999756
C    10.98999977   1.01999998  58.18000031
C     9.86999989   1.05999994  59.06999969
C     8.61999989   0.59999996  58.74000168
C     8.32999992   0.13000000  57.42000198
C     9.35000038   0.14000000  56.49000168
C    10.67000008   0.46999997  56.88999939
C    14.80999947   1.24000001  57.84999847
C    15.53999996   0.92000002  56.68000031
C    16.90999985   0.71000004  56.59999847
C     6.94000006  -0.32000002  57.05999756
H     6.46863365   0.27992067  56.28153229
H    11.44000053   0.23000000  54.93000031
H    12.60000038   1.53999996  59.58000183
H    10.06999969   1.38999999  60.07999802
H     7.85000038   0.71000004  59.48999786
H     9.11999989  -0.31000000  55.52999878
H    17.30999947   0.61000001  55.59999847
H     6.30999994  -0.50000000  57.95000076
H     7.13000011  -1.35000002  56.72999954
S    14.45000076  -1.31999993  52.08000183
C    11.82000065  -1.88999999  52.97000122
C    13.19000053  -1.94999993  53.15000153
C    13.71999931  -2.56000018  54.33000183
C    12.84000015  -3.08999991  55.25000000
C    11.44999981  -3.16000009  55.00000000
C    10.55999947  -3.79999995  55.90999985
C     9.22000027  -3.75999975  55.59000015
C     8.65999985  -3.14000010  54.45000076
C     9.50000000  -2.40999985  53.62999725
C    10.90000057  -2.45000005  53.88999939
C    15.18000031  -2.47000003  54.34999847
C    15.72999954  -1.84000003  53.20000076
C    17.05000114  -1.43000007  53.20999908
C     7.21000004  -3.35999990  54.08000183
H     6.87591267  -2.98326302  53.11327744
H    11.43000031  -1.52999997  52.02000046
H    13.22999954  -3.51000023  56.18000031
H    10.98999977  -4.26999998  56.79000092
H     8.56999969  -4.46999979  56.09000397
H     9.25000000  -1.74000001  52.80000305
H    17.45000076  -0.81000000  52.39999771
H     6.90000010  -4.40000010  54.23999786
H     6.69000053  -2.86000013  54.89999771
S    18.50000000  -3.15000010  56.58000183
C    21.11999893  -2.31999993  55.89000320
C    19.77000046  -2.36000013  55.63000107
C    19.26000023  -1.59999990  54.52000046
C    20.12000084  -1.02999997  53.60000229
C    21.52000046  -1.07000005  53.77999878
C    22.49000168  -0.50999999  52.90000153
C    23.84000015  -0.50999999  53.18000031
C    24.34000015  -1.03999996  54.40000153
C    23.39999962  -1.56000006  55.26000214
C    22.01000023  -1.65999997  55.00000000
C    17.82999992  -1.75999999  54.33000183
C    17.32999992  -2.52999997  55.40999985
C    15.98000050  -2.87999988  55.41999817
C    25.82999992  -0.92000002  54.59999847
H    26.11380577  -1.26766193  55.59331894
H    21.52000046  -2.87999988  56.72999954
H    19.69000053  -0.51999998  52.74000168
H    22.06999969  -0.14000000  51.97000122
H    24.48999786  -0.14999999  52.38999939
H    23.74000168  -2.07999992  56.16000366
H    15.47999954  -3.38000011  56.24000168
H    26.14999962   0.11000000  54.38999939
H    26.34000015  -1.53999996  53.86000061
