96

S    16.76000023   1.53999996  59.68000031
C    19.43000031   1.84000003  58.94000244
C    18.15999985   1.43999994  58.60000229
C    17.89999962   0.88999999  57.30999756
C    18.89999962   0.78000003  56.36000061
C    20.22000122   1.19000006  56.65999985
C    21.31000137   1.12000000  55.73999786
C    22.62000084   1.31999993  56.10000229
C    22.86999893   1.79000008  57.42000198
C    21.81999969   2.01999998  58.27999878
C    20.46999931   1.66999996  57.98999786
C    16.45000076   0.75999999  57.18000031
C    15.70000076   1.13000000  58.31999969
C    14.32000065   1.25000000  58.36000061
C    24.27999878   1.98000002  57.90999985
H    24.62883759   1.41046774  58.77141953
H    19.77000046   2.25999999  59.87999725
H    18.77000046   0.28999999  55.38999939
H    20.93000031   0.73000002  54.79999924
H    23.36000061   1.25999999  55.31000137
H    21.94000053   2.33999991  59.31000137
H    13.89999962   1.63000000  59.29000092
H    24.87999916   1.71000004  57.02999878
H    24.36000061   3.05000019  58.16999817
S    13.30999947   0.09000000  54.68999863
C    10.64000034   0.02000000  55.33000183
C    11.90000057   0.41000003  55.72000122
C    12.17000008   0.93000001  57.02999878
C    11.13999939   1.14999998  57.93000031
C     9.84000015   0.75000000  57.54000092
C     8.85999966   0.86000001  58.55999756
C     7.55000019   0.57999998  58.23999786
C     7.26000023   0.09999999  56.93999863
C     8.19999981  -0.04000000  55.94999695
C     9.57999992   0.17000002  56.25999832
C    13.60999966   0.93000001  57.19999695
C    14.34999943   0.55000001  56.04999924
C    15.73999977   0.54000002  55.98999786
C     5.91000032  -0.52999997  56.65999985
H     5.46255064  -0.01862955  55.80771637
H    10.44000053  -0.48000002  54.38000107
H    11.32999992   1.43000007  58.96999741
H     9.09000015   1.23000002  59.55999756
H     6.76000023   0.54000002  58.99000168
H     8.01000023  -0.56999999  55.02999878
H    16.28000069   0.35999998  55.06000137
H     5.32000017  -0.37000000  57.57999802
H     6.06999969  -1.59999990  56.55000305
S    13.88000011  -2.40999985  52.08000183
C    11.11999989  -2.63999987  52.75000000
C    12.44999981  -2.86999989  53.02000046
C    12.89000034  -3.30999994  54.31000137
C    11.90999985  -3.81000018  55.14999771
C    10.52999973  -3.65999985  54.91000366
C     9.44999981  -4.03999996  55.76000214
C     8.11999989  -3.97000027  55.40000153
C     7.75000000  -3.25000000  54.22999954
C     8.75000000  -2.91000009  53.34999847
C    10.13000011  -2.99000001  53.69999695
C    14.27000046  -2.98000002  54.65000153
C    14.91000080  -2.38999987  53.53000259
C    16.27000046  -2.09000015  53.48999786
C     6.32999992  -3.10999990  53.75000000
H     6.07335949  -3.88705111  53.02997971
H    10.82999992  -2.26999998  51.77000046
H    12.28000069  -4.28999996  56.04999924
H     9.77999973  -4.53000021  56.66999817
H     7.42999983  -4.67000008  55.86999893
H     8.38000011  -2.52999997  52.39999771
H    16.77000046  -1.63000000  52.64999771
H     5.61999989  -2.99000001  54.58000183
H     6.28000021  -2.13000011  53.27000046
S    17.64000130  -3.40000010  56.97000122
C    20.29999924  -2.93000007  56.20999908
C    18.96000099  -2.84999990  55.93000031
C    18.48999977  -2.27999997  54.69999695
C    19.40999985  -1.80999994  53.77999878
C    20.79000092  -1.82999992  54.09999847
C    21.71999931  -1.14999998  53.27000046
C    23.08000183  -1.15999997  53.47999954
C    23.54999924  -1.72999990  54.68999863
C    22.65999985  -2.23000002  55.61000061
C    21.27000046  -2.37000012  55.34999847
C    17.02999878  -2.36000013  54.62999725
C    16.42000008  -2.87999988  55.79000092
C    15.06999969  -3.19000006  55.77999878
C    25.03999901  -1.70000005  54.95999908
H    25.36889458  -2.37923956  55.74648666
H    20.48999977  -3.32999992  57.21000290
H    19.04999924  -1.31999993  52.88000107
H    21.34000015  -0.68000007  52.36000061
H    23.71999931  -0.74000001  52.70999908
H    23.12999916  -2.43000007  56.56999969
H    14.60999966  -3.77999997  56.56999969
H    25.22999954  -0.67000002  55.30000305
H    25.76999855  -1.86000001  54.15000153
