96

S    16.79000092   1.65999997  59.79999924
C    19.50000000   1.48000002  59.40000153
C    18.25000000   1.18000007  58.90999603
C    17.98999977   0.78000003  57.56000137
C    19.06999969   0.62000000  56.70999908
C    20.38999939   0.88999999  57.15000153
C    21.45000076   0.93000001  56.18999863
C    22.70000076   1.31999993  56.59999847
C    22.95000076   1.66999996  57.95000076
C    21.94000053   1.52999997  58.88000107
C    20.59999847   1.23000002  58.53000259
C    16.56999969   0.92000002  57.25999832
C    15.80000019   1.35000002  58.36999893
C    14.42999935   1.59999990  58.29000092
C    24.27000046   2.16999984  58.50999832
H    24.77510452   1.47992635  59.18584442
H    19.55000114   1.90999997  60.38999939
H    18.96999931   0.19999999  55.72000122
H    21.18999863   0.79999995  55.13999939
H    23.39999962   1.39999998  55.77000046
H    22.14999962   1.87999988  59.87999725
H    13.85000038   1.88999999  59.15000153
H    24.93999863   2.38999987  57.67000198
H    24.11000061   3.12000012  59.02000046
S    13.45999908  -0.07000000  54.81999969
C    10.72999954  -0.17000002  55.59999847
C    12.02999973   0.20999999  55.84000015
C    12.35999966   0.76999998  57.11999893
C    11.42000008   0.79999995  58.13000107
C    10.05000019   0.65999997  57.81000137
C     9.01000023   0.90000004  58.75999832
C     7.73999977   0.43000001  58.50999832
C     7.37999964  -0.07000000  57.23999786
C     8.32999992  -0.19999999  56.25000000
C     9.68999958   0.11000000  56.52999878
C    13.78000069   1.08000004  57.15999985
C    14.53999996   0.61000001  56.05999756
C    15.93000031   0.65999997  56.04000092
C     5.95000029  -0.54000002  57.04000092
H     5.57107306  -0.20397028  56.07480621
H    10.57999992  -0.56000000  54.59999847
H    11.72999954   1.04999995  59.13999939
H     9.19999981   1.29999995  59.75000000
H     6.94999981   0.52999997  59.25000000
H     8.03999996  -0.65999997  55.31000137
H    16.43000031   0.09999999  55.26000214
H     5.44000053  -0.11000000  57.90999985
H     6.02999973  -1.63000000  57.19999695
S    17.81999969   2.25000000  53.74000168
C    20.51000214   2.50000000  53.08000183
C    19.26000023   2.05999994  52.71999741
C    18.95000076   1.56000006  51.40999603
C    19.96999931   1.38000000  50.50000000
C    21.28000069   1.75999999  50.89000320
C    22.27000046   1.59999990  49.86999893
C    23.54999924   2.00999999  50.15999603
C    23.90000153   2.43000007  51.46999741
C    22.95000076   2.63000011  52.44999695
C    21.57999992   2.32999992  52.16999817
C    17.51000023   1.36000013  51.26999664
C    16.76000023   1.77999997  52.39999771
C    15.38000011   1.64000010  52.47000122
C    25.34000015   2.75999999  51.79999924
H    25.72281456   2.20704794  52.65778732
H    20.71000099   2.87999988  54.08000183
H    19.77000046   0.82999998  49.59000015
H    21.98999786   1.31999993  48.86000061
H    24.34000015   2.06999993  49.43000031
H    23.35000038   2.99000001  53.39000320
H    14.84000015   1.98000002  53.34999847
H    25.93000031   2.38000011  50.96000290
H    25.43000031   3.82999992  52.01000214
S    14.39000034   0.12000000  48.96999741
C    11.64000034   0.04000000  49.47000122
C    12.89999962   0.41000003  49.88999939
C    13.22000027   1.02999997  51.13999939
C    12.18000031   1.52999997  51.90000153
C    10.88999939   1.07000005  51.55000305
C     9.80000019   1.34000003  52.42000198
C     8.51000023   1.18000007  51.95999908
C     8.22000027   0.45000002  50.77000046
C     9.22999954   0.22000000  49.86999893
C    10.57000065   0.45000002  50.28999710
C    14.65000057   1.19000006  51.37000275
C    15.43000031   0.74000001  50.27000046
C    16.81999969   0.82000005  50.18000031
C     6.78999996   0.08000001  50.45999908
H     6.41168213   0.61535496  49.58915329
H    11.44000053  -0.31000000  48.46000290
H    12.38000011   1.99000001  52.87000275
H    10.06999969   1.52999997  53.44999695
H     7.67000008   1.38000000  52.61000061
H     9.07999992  -0.31000000  48.93000031
H    17.30999947   0.37000000  49.31999969
H     6.12999964   0.37000000  51.29000092
H     6.71999979  -1.00999999  50.38999939
