96

S    17.02999878   1.58000004  60.13000107
C    19.67000008   2.00999999  59.34999847
C    18.43000031   1.50999999  59.03999710
C    18.12999916   1.05999994  57.70999908
C    19.13999939   1.10000002  56.77000046
C    20.43999863   1.58999991  57.06999969
C    21.50000000   1.43000007  56.13999939
C    22.80999947   1.72000003  56.45000076
C    23.12000084   2.22000003  57.75000000
C    22.09000015   2.36000013  58.64999771
C    20.73999786   1.95999992  58.41999817
C    16.69000053   1.04999995  57.49000168
C    16.01000023   1.34000003  58.69999695
C    14.61999989   1.38999999  58.72000122
C    24.44999886   2.79999995  58.15000153
H    24.89235115   2.18641496  58.93481827
H    19.82999992   2.50000000  60.31000137
H    18.90999985   0.59000003  55.84000015
H    21.18999863   1.00999999  55.18000031
H    23.52000046   1.65999997  55.63999939
H    22.32000160   2.89000010  59.56999969
H    14.09999943   1.66999996  59.62999725
H    25.07999802   2.82999992  57.25000000
H    24.38999939   3.84999990  58.44999695
S    13.50999928   0.44000000  54.99000168
C    10.88000107   0.02000000  55.83000183
C    12.13999939   0.50000000  56.11000061
C    12.51000023   0.90000004  57.43000031
C    11.51999950   1.02999997  58.39000320
C    10.19999981   0.56999999  58.15000153
C     9.13999939   0.63000000  59.09000015
C     7.88999987   0.12000000  58.79000092
C     7.57000017  -0.27000001  57.47000122
C     8.56999969  -0.38000000  56.52999878
C     9.89999962   0.02000000  56.86000061
C    13.93000031   1.19999993  57.51999664
C    14.60999966   0.86000001  56.31999969
C    16.00000000   0.83999997  56.29000092
C     6.11999989  -0.57999998  57.15999985
H     5.78759718  -0.22637984  56.18400574
H    10.69000053  -0.38000000  54.82999802
H    11.71000004   1.49000001  59.36000061
H     9.26999950   1.03999996  60.08999634
H     7.07000017   0.31000000  59.47999954
H     8.28999996  -0.64999998  55.52000046
H    16.51000023   0.71999997  55.34000015
H     5.38000011  -0.25999999  57.90999985
H     6.00000000  -1.66999996  57.18000031
S    18.27000046   2.16999984  53.74000168
C    20.97999954   2.61999989  53.02999878
C    19.72999954   2.11999989  52.74000168
C    19.42000008   1.62000000  51.44000244
C    20.39999962   1.74000001  50.47000122
C    21.73999977   2.06999993  50.77999878
C    22.86000061   1.90999997  49.93000031
C    24.13999939   2.33999991  50.20000076
C    24.38999939   2.96000004  51.45999908
C    23.36000061   3.03999996  52.36999893
C    22.03000069   2.61999989  52.08000183
C    18.00000000   1.36999989  51.25999832
C    17.22999954   1.53999996  52.43999863
C    15.84000015   1.58000004  52.45999908
C    25.81000137   3.31999993  51.83000183
H    26.09399986   2.70230246  52.68199539
H    21.24000168   3.09999990  53.96999741
H    20.05000114   1.42000008  49.48999786
H    22.84000015   1.43000007  48.95000076
H    24.97999954   2.26999998  49.51000214
H    23.50000000   3.38000011  53.39000320
H    15.31000042   1.76999998  53.37999725
H    26.50000000   3.17000008  50.98999786
H    25.96999931   4.35999966  52.11999893
S    14.92000008   1.00000000  48.62999725
C    12.15999985   0.97000003  49.15999985
C    13.45000076   1.14999998  49.61000061
C    13.71999931   1.39999998  50.98999786
C    12.64000034   1.64000010  51.83000183
C    11.31000042   1.39999998  51.42000198
C    10.24000072   1.25000000  52.35000229
C     8.96000004   0.93999994  51.93999863
C     8.67999935   0.65999997  50.58000183
C     9.73999977   0.63000000  49.69999695
C    11.05999947   1.04999995  50.05000305
C    15.14999962   1.41000009  51.25000000
C    15.92000008   1.15999997  50.07999802
C    17.30999947   1.04999995  50.08999634
C     7.40000010  -0.08000001  50.27000046
H     6.65314007   0.65263420  49.96414566
H    11.84000015   0.61000001  48.18999863
H    12.86000061   1.90999997  52.84999847
H    10.48999977   1.38000000  53.40000153
H     8.22000027   0.78000003  52.71999741
H     9.59999943   0.09999999  48.75999832
H    17.81999969   0.79000002  49.16999817
H     7.00000000  -0.59999996  51.14999771
H     7.64999962  -0.85000002  49.52999878
