96

S    17.29999924   2.21000004  59.81999969
C    19.97999954   2.37000012  59.06999969
C    18.71000099   1.94999993  58.76999664
C    18.42000008   1.28000009  57.54000092
C    19.45000076   1.02999997  56.65000153
C    20.79000092   1.22000003  57.04999924
C    21.87999916   0.75000000  56.26999664
C    23.15999985   1.15999997  56.59999847
C    23.45999908   1.79000008  57.83000183
C    22.42000198   2.19000006  58.63999939
C    21.07000160   1.93000007  58.27000046
C    17.00000000   0.96000004  57.43999863
C    16.29999924   1.43999994  58.56999969
C    14.92000008   1.26999998  58.68999863
C    24.87999916   2.19000006  58.16999817
H    25.20080757   1.66245043  59.06826019
H    20.22000122   2.94000006  59.97000122
H    19.29000092   0.50999999  55.70999908
H    21.55999947   0.28000000  55.34999847
H    23.87000084   1.14999998  55.77999878
H    22.69000053   2.84999990  59.45999908
H    14.46000004   1.42000008  59.65999985
H    25.48999977   1.97000003  57.29000092
H    24.84000015   3.28000021  58.30999756
S    13.83999920  -0.00000000  55.10000229
C    11.10999966  -0.05000000  55.68999863
C    12.38999939   0.25999999  56.07999802
C    12.71000004   0.71999997  57.39999771
C    11.63000011   0.92000002  58.25000000
C    10.29999924   0.65999997  57.87000275
C     9.15999985   0.71999997  58.73000336
C     7.86000013   0.46000001  58.34000015
C     7.57000017   0.09000000  57.00000000
C     8.64000034   0.06000000  56.14999771
C    10.00000000   0.19999999  56.53999710
C    14.14000034   0.82999998  57.62000275
C    14.88000011   0.48999998  56.45000076
C    16.27000046   0.41000003  56.38000107
C     6.15000010  -0.34999999  56.70000076
H     5.90891266  -0.03091455  55.68601608
H    10.93000031  -0.35999998  54.65999985
H    11.85999966   1.19999993  59.27999878
H     9.38000011   1.08999991  59.72999954
H     7.07999992   0.54000002  59.09000015
H     8.40999985  -0.39000002  55.19000244
H    16.72000122  -0.05000000  55.51000214
H     5.40999985   0.08000001  57.37999725
H     6.17000008  -1.43000007  56.83000183
S    17.68000031   1.88999999  53.76999664
C    20.32999992   2.19000006  53.11999893
C    19.11000061   1.65999997  52.75000000
C    18.84000015   1.16999996  51.43000031
C    19.80999947   1.16999996  50.45000076
C    21.07000160   1.72999990  50.77999878
C    22.11000061   1.61000001  49.81999969
C    23.38000107   2.02999997  50.15999603
C    23.67000198   2.46000004  51.47999573
C    22.67000008   2.56000018  52.42000198
C    21.31000137   2.25000000  52.09999847
C    17.38999939   1.11000001  51.24000168
C    16.63999939   1.47000003  52.38999939
C    15.25000000   1.49000001  52.31999969
C    25.00000000   3.02999997  51.91999817
H    25.46234322   2.29736662  52.58150101
H    20.55000114   2.47000003  54.13999939
H    19.63999939   0.71999997  49.47999954
H    21.87999916   1.08999991  48.89999771
H    24.00000000   2.27999997  49.31000137
H    22.88999939   2.73999977  53.47000122
H    14.80000019   1.84000003  53.25000000
H    25.76999855   3.25999999  51.17000198
H    24.84999847   4.01999998  52.37999725
S    14.42999935   0.56999999  48.54000092
C    11.69999981   0.48999998  49.05000305
C    12.94999981   0.85000002  49.47999954
C    13.22000027   1.16999996  50.84999847
C    12.18000031   1.19000006  51.77000046
C    10.85000038   0.90999997  51.36000061
C     9.72000027   0.90000004  52.22000122
C     8.46000004   0.57999998  51.77999878
C     8.21000004   0.34000003  50.40000153
C     9.30000019   0.28999999  49.56999969
C    10.64000034   0.54000002  49.99000168
C    14.65000057   1.21000004  51.09000397
C    15.44999981   0.85000002  49.97000122
C    16.84000015   0.82000005  49.99000168
C     6.83000040  -0.05000000  49.93999863
H     6.40284061   0.69041008  49.26366425
H    11.39999962   0.25999999  48.02999878
H    12.25999928   1.43000007  52.81999969
H     9.92000008   1.18000007  53.25000000
H     7.72000027   0.39999998  52.56000137
H     9.21000004  -0.06000000  48.54000092
H    17.47999954   0.64999998  49.13000107
H     6.07999992  -0.20999999  50.72999954
H     6.89000034  -1.00999999  49.41999817
