96

S    17.57999992   1.58999991  60.05000305
C    20.32999992   1.84000003  59.43999863
C    19.04000092   1.57000005  59.03999710
C    18.71000099   1.15999997  57.70000076
C    19.75000000   0.93999994  56.81000137
C    21.07999992   1.24000001  57.18000031
C    22.13000107   1.14999998  56.23000336
C    23.36000061   1.70000005  56.52000046
C    23.69999886   2.26999998  57.77000046
C    22.65999985   2.34999990  58.67000198
C    21.38000107   1.75999999  58.48999786
C    17.29999924   0.90000004  57.45999908
C    16.57999992   1.14999998  58.64999771
C    15.19000053   1.13999999  58.64999771
C    25.13000107   2.68000007  58.04000092
H    25.57834625   2.16048861  58.88687515
H    20.50000000   2.30999994  60.40999985
H    19.51000023   0.48000002  55.86000061
H    21.87000084   0.83999997  55.21999741
H    24.23000145   1.61000001  55.86000061
H    22.73999977   2.93000007  59.58000183
H    14.68999958   1.43999994  59.56999969
H    25.65000153   2.51999998  57.09000015
H    25.20999908   3.75000000  58.27999878
S    14.22000027  -0.09000000  54.99000168
C    11.49000072  -0.22000000  55.61000061
C    12.77999973   0.04000000  56.00999832
C    13.03999996   0.62000000  57.29999924
C    12.00000000   0.88000000  58.18000031
C    10.67000008   0.62000000  57.77999878
C     9.57999992   0.69000000  58.68000031
C     8.30000019   0.32000002  58.36000061
C     8.10000038  -0.41000003  57.15000153
C     9.15000057  -0.61000001  56.29000092
C    10.40999985   0.02000000  56.49000168
C    14.47000027   0.82000005  57.49000168
C    15.21999931   0.48999998  56.33999634
C    16.60000038   0.61000001  56.27999878
C     6.71999979  -0.71999997  56.60999680
H     6.40616655  -0.05667031  55.80401611
H    11.33999920  -0.74000001  54.65999985
H    12.15000057   1.30999994  59.15999985
H     9.88000011   0.93000001  59.69999695
H     7.50000000   0.46000001  59.09000015
H     9.06999969  -1.22000003  55.38999939
H    17.17000008   0.41999999  55.37000275
H     6.07999992  -0.45000002  57.45999908
H     6.69000053  -1.80000007  56.42000198
S    14.93999958  -2.09000015  52.29999924
C    12.30000019  -2.70000005  52.84999847
C    13.60999966  -2.79000020  53.25000000
C    14.06000042  -3.35000014  54.48999786
C    13.07999992  -3.91000009  55.28999710
C    11.72000027  -3.88999987  54.91000366
C    10.71000004  -4.42000008  55.76000214
C     9.38000011  -4.23999977  55.51000214
C     8.94999981  -3.58999991  54.31000137
C     9.89999962  -3.12999988  53.43999863
C    11.30000019  -3.24000001  53.69999695
C    15.47000027  -3.09999990  54.75999832
C    16.03999901  -2.45000005  53.63999939
C    17.36999893  -2.03999996  53.60000229
C     7.49000025  -3.24000001  54.13999939
H     7.11262846  -3.58889079  53.17876816
H    11.90000057  -2.23000002  51.95000076
H    13.30000019  -4.39000034  56.24000168
H    11.05999947  -4.69000006  56.76000214
H     8.71999931  -4.41000032  56.36000061
H     9.64999962  -2.69000006  52.48000336
H    17.86999893  -1.65999997  52.71999741
H     6.88000011  -3.70000005  54.93000031
H     7.35000038  -2.15000010  54.13000107
S    18.90999985  -3.42000008  57.01000214
C    21.53000069  -2.84000015  56.12999725
C    20.17000008  -2.79000020  55.91999817
C    19.61000061  -2.20000005  54.73999786
C    20.45000076  -1.66999996  53.79000092
C    21.84999847  -1.74000001  53.95999908
C    22.75000000  -1.21000004  52.97999954
C    24.11000061  -1.28000009  53.20000076
C    24.64999962  -1.80999994  54.40000153
C    23.81999969  -2.37000012  55.33000183
C    22.40999985  -2.33999991  55.13999939
C    18.17000008  -2.38999987  54.68999863
C    17.63000107  -3.02999997  55.84000015
C    16.28999901  -3.40000010  55.84999847
C    26.14999962  -2.00000000  54.54000092
H    26.49210739  -1.70065641  55.53068542
H    21.94999886  -3.37000012  56.98999786
H    19.98999977  -1.21000004  52.91999817
H    22.39000130  -0.54000002  52.21000290
H    24.72999954  -1.00999999  52.36000061
H    24.15999985  -2.94999981  56.18999863
H    15.90000057  -3.88999987  56.73999786
H    26.68000031  -1.44999993  53.75999832
H    26.38999939  -3.05000019  54.29999924
