96

S    18.18000031   1.92000008  59.75000000
C    20.76000023   2.16999984  58.90999603
C    19.52000046   1.64000010  58.61999893
C    19.04000092   1.23000002  57.34000397
C    20.05000114   1.22000003  56.38999939
C    21.37000084   1.69000006  56.59999847
C    22.39000130   1.41000009  55.65000153
C    23.71000099   1.71000004  55.86999893
C    24.03000069   2.25000000  57.15000153
C    23.12999916   2.44000006  58.16999817
C    21.75000000   2.19000006  57.88999939
C    17.59000015   1.07000005  57.27000427
C    17.01000023   1.42000008  58.52000427
C    15.62999916   1.51999998  58.61999893
C    25.50000000   2.31999993  57.47000122
H    25.82022667   1.90014827  58.42356110
H    21.02999878   2.66000009  59.85000229
H    19.92000008   0.78000003  55.40999985
H    22.09000015   1.00000000  54.68999863
H    24.50000000   1.56000006  55.13999939
H    23.52999878   2.73000002  59.13000107
H    15.29000092   1.71000004  59.62999725
H    26.15999985   1.87000012  56.70999908
H    25.81999969   3.37000012  57.38999939
S    14.34999943   0.88000000  54.86999893
C    11.71000004   0.79000002  55.61999893
C    12.97999954   1.23000002  55.93000031
C    13.43999958   1.57000005  57.23999786
C    12.43000031   1.70000005  58.18000031
C    11.10999966   1.23000002  57.95000076
C    10.10000038   1.30999994  58.95000076
C     8.82999992   0.88999999  58.64999771
C     8.47000027   0.44000000  57.35000229
C     9.36999989   0.50999999  56.31000137
C    10.72000027   0.79999995  56.63000107
C    14.88000011   1.50999999  57.43000031
C    15.48999977   1.11000001  56.22000122
C    16.84999847   0.88999999  56.10000229
C     7.09000015  -0.08000001  57.00000000
H     6.66454363   0.41636589  56.12781525
H    11.49000072   0.44000000  54.61000061
H    12.76000023   1.87999988  59.20000076
H    10.21000004   1.80999994  59.91000366
H     8.14000034   0.99000001  59.47999954
H     8.98999977   0.25000000  55.33000183
H    17.26000023   0.64999998  55.12000275
H     6.48999977   0.20999999  57.87000275
H     7.13999987  -1.15999997  56.86000061
S    14.37999916  -1.51999998  52.05999756
C    11.76000023  -1.77999997  52.88999939
C    13.07999992  -2.00999999  53.15999985
C    13.52000046  -2.79999995  54.27999878
C    12.56000042  -3.37000012  55.10000229
C    11.18000031  -3.07000017  54.93000031
C    10.06999969  -3.54999995  55.68999863
C     8.75000000  -3.40999985  55.34999847
C     8.40999985  -2.66999984  54.19000244
C     9.42000008  -2.11999989  53.43000031
C    10.77999973  -2.31999993  53.76999664
C    14.96000099  -2.66999984  54.40999985
C    15.55999947  -2.09999990  53.26000214
C    16.92000008  -1.82999992  53.18999863
C     6.96000004  -2.59000015  53.76999664
H     6.64807129  -3.36982203  53.07524490
H    11.51000023  -1.25999999  51.97000122
H    12.86999893  -4.07000017  55.86999893
H    10.31999969  -4.11000013  56.59000015
H     8.05000019  -3.88999987  56.03000259
H     9.06999969  -1.71000004  52.48000336
H    17.42000008  -1.38999999  52.32999802
H     6.38999987  -2.64999986  54.69999695
H     6.75000000  -1.58000004  53.39000320
S    18.34000015  -3.16000009  56.65999985
C    20.95000076  -2.64999986  55.94999695
C    19.62000084  -2.44000006  55.66999817
C    19.11999893  -1.79000008  54.48999786
C    20.03999901  -1.24000001  53.61000061
C    21.42000008  -1.33000004  53.88000107
C    22.34999847  -0.81000000  52.94000244
C    23.69999886  -1.03999996  53.11999893
C    24.13999939  -1.89999998  54.15999985
C    23.25000000  -2.42000008  55.07999802
C    21.86000061  -2.17999983  54.97000122
C    17.69000053  -2.00000000  54.34999847
C    17.13000107  -2.73999977  55.41999817
C    15.78999996  -3.07999992  55.45999908
C    25.62000084  -2.11999989  54.34999847
H    25.97574425  -1.88520813  55.35320282
H    21.19999886  -3.19999981  56.84999847
H    19.64999962  -0.88999999  52.65999603
H    22.07999992  -0.39999998  51.97000122
H    24.44999886  -0.67000002  52.42000198
H    23.69999886  -2.92000008  55.93999863
H    15.32999992  -3.50000000  56.35000229
H    26.25999832  -1.52999997  53.68999863
H    25.86999893  -3.17999983  54.16999817
