96

S    17.28999901   1.76999998  60.22999573
C    19.97999954   2.14000010  59.54999924
C    18.71000099   1.79000008  59.15999985
C    18.34000015   1.53999996  57.80000305
C    19.34999847   1.21000004  56.90999985
C    20.68000031   1.48000002  57.29999924
C    21.73000145   1.50999999  56.33999634
C    23.03999901   1.84000003  56.59999847
C    23.39999962   2.28999996  57.90000153
C    22.37999916   2.39999986  58.81000137
C    21.02999878   1.99000001  58.60000229
C    16.90000153   1.57000005  57.62000275
C    16.18999863   1.79000008  58.83999634
C    14.80999947   1.87000012  58.75000000
C    24.79000092   2.82000017  58.16999817
H    25.20878220   2.35863042  59.06434631
H    20.10999870   2.54999995  60.54999924
H    19.13999939   0.75000000  55.94999695
H    21.47000122   1.35000002  55.30000305
H    23.64000130   1.70000005  55.70999908
H    22.50000000   2.99000001  59.72000122
H    14.22999954   1.94999993  59.66999817
H    25.50000000   2.47000003  57.41000366
H    24.86000061   3.91000009  58.13000107
S    13.85000038   0.92000002  54.98000336
C    11.16000080   0.52999997  55.61999893
C    12.43999958   0.81000000  56.05999756
C    12.72999954   1.14999998  57.42000198
C    11.72000027   1.19000006  58.36000061
C    10.39000034   0.92000002  57.97000122
C     9.30999947   1.08999991  58.88999939
C     8.03999996   0.78000003  58.44999695
C     7.81000042   0.25999999  57.15000153
C     8.82999992   0.14000000  56.24000168
C    10.14999962   0.54000002  56.60999680
C    14.13000011   1.51999998  57.57999802
C    14.86999989   1.19000006  56.40999603
C    16.26000023   1.22000003  56.43000031
C     6.40999985  -0.06000000  56.69000244
H     5.96084118   0.63869208  55.98418045
H    11.02000046   0.13000000  54.61999893
H    11.90000057   1.49000001  59.38999939
H     9.47000027   1.31999993  59.93999863
H     7.23000002   0.78000003  59.16999817
H     8.73999977  -0.17000002  55.20000076
H    16.76000023   0.78000003  55.56999969
H     5.75999975  -0.11000000  57.57999802
H     6.34000015  -1.03999996  56.20999908
S    18.17000008   2.61999989  53.83999634
C    20.88999939   2.75000000  53.15999985
C    19.59000015   2.49000001  52.78999710
C    19.26000023   1.99000001  51.49000168
C    20.23999977   1.87000012  50.52999878
C    21.60000038   2.05999994  50.89000320
C    22.65999985   1.82999992  49.95999908
C    23.95000076   2.14000010  50.31999969
C    24.27000046   2.63000011  51.62000275
C    23.26999855   2.77999997  52.55000305
C    21.91999817   2.47000003  52.22999954
C    17.80999947   1.92000008  51.33999634
C    17.06999969   2.17999983  52.52999878
C    15.67999935   2.23000002  52.56000137
C    25.72000122   2.89000010  51.95999908
H    25.91165733   2.84031105  53.03186417
H    21.18000031   3.25999999  54.08000183
H    19.98999977   1.59999990  49.51000214
H    22.34000015   1.58000004  48.95000076
H    24.82999992   2.13000011  49.69999695
H    23.54999924   3.10999990  53.54999924
H    15.21999931   2.66999984  53.43000031
H    26.38000107   2.33999991  51.29000092
H    25.95000076   3.93000007  51.68000031
S    14.65000057   1.05999994  48.88999939
C    11.90000057   1.07000005  49.50000000
C    13.20000076   1.35000002  49.86000061
C    13.52000046   1.77999997  51.18999863
C    12.50000000   2.01999998  52.08000183
C    11.16000080   1.74000001  51.70000076
C    10.17000008   2.00999999  52.68000031
C     8.89000034   1.57000005  52.42000198
C     8.51000023   1.13999999  51.11999893
C     9.44000053   1.00000000  50.12000275
C    10.81999969   1.25000000  50.38999939
C    14.96000099   1.87000012  51.40999603
C    15.67999935   1.38000000  50.30000305
C    17.06999969   1.33000004  50.31000137
C     7.07999992   0.79000002  50.79000092
H     6.66647053   1.34612584  49.94868088
H    11.71000004   0.71000004  48.48999786
H    12.76999950   2.24000001  53.11000061
H    10.47000027   2.26999998  53.68999863
H     8.17000008   1.58000004  53.23999786
H     9.17000008   0.87000000  49.06999969
H    17.57999992   0.97000003  49.41999817
H     6.42000008   0.93999994  51.65999985
H     7.03000021  -0.25999999  50.45000076
