96

S    17.64000130   1.70000005  59.87999725
C    20.36000061   1.99000001  59.18000031
C    19.06999969   1.62000000  58.83999634
C    18.72999954   1.16999996  57.52999878
C    19.71999931   1.01999998  56.56999969
C    21.02999878   1.47000003  56.86000061
C    22.06999969   1.47000003  55.89000320
C    23.36999893   1.82999992  56.16000366
C    23.62999916   2.38000011  57.43999863
C    22.65000153   2.49000001  58.40999985
C    21.35000038   1.98000002  58.16999817
C    17.28999901   1.02999997  57.35000229
C    16.55999947   1.30999994  58.53000259
C    15.17000008   1.33000004  58.57999802
C    25.06000137   2.57999992  57.88999939
H    25.25233269   1.82491696  58.65220642
H    20.52999878   2.48000002  60.13999939
H    19.52999878   0.64999998  55.56000137
H    21.68999863   1.08000004  54.94999695
H    24.20999908   1.56000006  55.52000046
H    22.93999863   2.86999989  59.38999939
H    14.56999969   1.63000000  59.43000031
H    25.76999855   2.48000002  57.05999756
H    25.00000000   3.60000014  58.27999878
S    14.11999893   0.27000001  54.88999939
C    11.38000011   0.27000001  55.43000031
C    12.65999985   0.55000001  55.86000061
C    13.04999924   0.93000001  57.18000031
C    12.01000023   1.13000000  58.06000137
C    10.69000053   0.75999999  57.70999908
C     9.63999939   0.93999994  58.66000366
C     8.38000011   0.50999999  58.30999756
C     8.02999973   0.03000000  57.02000046
C     9.02999973  -0.12000000  56.09000397
C    10.32999992   0.39000002  56.37000275
C    14.48999977   1.08999991  57.37999725
C    15.21000004   0.69999999  56.22000122
C    16.60000038   0.71000004  56.18000031
C     6.56000042  -0.24000001  56.76000214
H     6.15502787   0.38522023  55.96426392
H    11.26999950  -0.27000001  54.48999786
H    12.15999985   1.58999991  59.03999710
H     9.82999992   1.31999993  59.65999985
H     7.59999990   0.71999997  59.02999878
H     8.86999989  -0.56999999  55.11000061
H    17.20000076   0.39000002  55.34000015
H     6.14000034  -0.14999999  57.77000046
H     6.43000031  -1.23000002  56.31000137
S    17.79999924   2.36000013  53.60000229
C    20.52000046   2.53999996  52.94000244
C    19.22999954   2.26999998  52.56000137
C    18.98999977   1.70000005  51.25999832
C    20.03999901   1.59999990  50.37000275
C    21.38000107   1.88999999  50.72000122
C    22.46000099   1.71000004  49.79999924
C    23.71000099   2.11999989  50.19000244
C    23.97000122   2.75000000  51.44000244
C    22.92000008   2.84999990  52.32999802
C    21.61000061   2.38000011  52.04999924
C    17.60000038   1.28999996  51.16000366
C    16.81999969   1.74000001  52.25999832
C    15.43000031   1.77999997  52.31999969
C    25.35000038   3.25000000  51.77999878
H    25.84139061   2.53071928  52.43518829
H    20.66999817   3.05000019  53.88999939
H    19.95000076   1.08000004  49.41999817
H    22.22999954   1.36000013  48.80000305
H    24.54999924   1.97000003  49.52999878
H    23.02999878   3.24000001  53.34000015
H    14.92000008   2.15000010  53.20999908
H    25.85000038   3.40999985  50.80999756
H    25.02000046   4.15000010  52.29999924
S    14.39000034   0.74000001  48.64999771
C    11.64999962   0.71000004  49.34000015
C    12.97000027   0.83999997  49.71000290
C    13.30999947   1.26999998  51.04000092
C    12.28999996   1.50000000  51.95000076
C    10.93000031   1.28000009  51.63999939
C     9.88000011   1.46000004  52.57999802
C     8.60999966   1.05999994  52.27000427
C     8.27999973   0.56999999  50.97999954
C     9.26000023   0.52999997  50.00999832
C    10.60999966   0.88999999  50.28999710
C    14.75999928   1.28000009  51.19999695
C    15.47999954   0.93000001  50.04000092
C    16.87000084   0.87000000  50.04000092
C     6.90999985   0.05000000  50.61999893
H     6.45304585   0.74257058  49.91314697
H    11.44999981   0.32000002  48.34999847
H    12.53000069   1.79000008  52.97000122
H    10.19000053   1.99000001  53.47999954
H     7.68000031   1.10000002  52.84000015
H     8.93000031   0.09999999  49.06999969
H    17.43999863   0.79999995  49.12000275
H     6.30999994  -0.09000000  51.52999878
H     6.98999977  -0.96000004  50.19000244
