96

S    16.87999916   1.75000000  60.15999603
C    19.60000038   1.80999994  59.52999878
C    18.30999947   1.57000005  59.13000107
C    18.00000000   1.19999993  57.77999878
C    18.98999977   1.10000002  56.81999969
C    20.34000015   1.25000000  57.22999954
C    21.38000107   1.15999997  56.25999832
C    22.70000076   1.30999994  56.58000183
C    23.01000214   1.79000008  57.88999939
C    22.01000023   1.92000008  58.82999802
C    20.65000153   1.57000005  58.60000229
C    16.54999924   1.08999991  57.62000275
C    15.80999947   1.42000008  58.77999878
C    14.42999935   1.62000000  58.69999695
C    24.40999985   2.11999989  58.33000183
H    24.75017166   1.59556961  59.22294998
H    19.73999977   2.14000010  60.56000137
H    18.77000046   0.86000001  55.77999878
H    21.15999985   0.75999999  55.27000046
H    23.55999947   0.94999999  56.00999832
H    22.11999893   2.48000002  59.75000000
H    13.93000031   1.87999988  59.61999893
H    25.03999901   1.99000001  57.43999863
H    24.44000053   3.19999981  58.52000427
S    13.43999958   0.69999999  54.97000122
C    10.72000027   0.50000000  55.54000092
C    11.97000027   0.90000004  55.93999863
C    12.28000069   1.39999998  57.25000000
C    11.25000000   1.58999991  58.15000153
C     9.94000053   1.19000006  57.80000305
C     8.85000038   1.19000006  58.72000122
C     7.59000015   0.75999999  58.36999893
C     7.31999969   0.25999999  57.06999969
C     8.34000015   0.28000000  56.14999771
C     9.68000031   0.63000000  56.49000168
C    13.71999931   1.41000009  57.50999832
C    14.47000027   0.97999996  56.38999939
C    15.85000038   0.83999997  56.44000244
C     5.93999958  -0.23000000  56.69000244
H     5.31312561   0.41112107  56.07025146
H    10.57000065   0.25000000  54.50000000
H    11.36000061   1.94999993  59.16999817
H     8.97999954   1.58000004  59.72999954
H     6.76000023   0.96000004  59.03999710
H     8.10999966   0.02000000  55.13000107
H    16.46000099   0.61000001  55.56999969
H     5.38000011  -0.65999997  57.52999878
H     6.19000006  -1.07000005  56.03000259
S    17.17000008   2.29999995  53.75000000
C    19.95000076   2.25000000  53.20000076
C    18.64999962   2.00000000  52.81999969
C    18.31999969   1.51999998  51.52000046
C    19.32999992   1.35000002  50.59000015
C    20.69000053   1.54999995  50.93000031
C    21.75000000   1.44999993  49.98000336
C    23.05999947   1.75000000  50.26000214
C    23.35000038   2.14000010  51.59999847
C    22.34999847   2.21000004  52.55000305
C    20.97999954   1.93000007  52.28000259
C    16.88999939   1.51999998  51.24000168
C    16.13000107   1.94000006  52.36000061
C    14.73999977   2.00999999  52.29999924
C    24.79000092   2.38000011  51.98999786
H    25.18861389   1.71801686  52.75875473
H    20.10999870   2.57999992  54.22000122
H    19.13999939   1.04999995  49.56999969
H    21.47000122   1.13000000  48.97999573
H    23.78000069   1.56000006  49.47000122
H    22.56999969   2.69000006  53.50000000
H    14.32999992   2.50999975  53.18000031
H    25.36999893   2.39999986  51.05999756
H    24.93999863   3.44000006  52.22999954
S    13.73000050   0.69999999  48.75999832
C    10.98999977   0.39000002  49.47000122
C    12.27000046   0.79000002  49.77000427
C    12.53000069   1.36999989  51.04999924
C    11.54999924   1.65999997  51.97999954
C    10.22999954   1.25000000  51.70000076
C     9.15000057   1.43000007  52.62000275
C     7.90999985   0.86000001  52.51999664
C     7.72000027   0.13000000  51.31000137
C     8.69000053  -0.01000000  50.34000015
C     9.98000050   0.56999999  50.45000076
C    13.96000004   1.62000000  51.20999908
C    14.77000046   1.25999999  50.10000229
C    16.14999962   1.29999995  50.06999969
C     6.32999992  -0.34999999  50.97999954
H     5.69901371   0.38733301  50.48371887
H    10.72000027  -0.20999999  48.61000061
H    11.90000057   2.22000003  52.84000015
H     9.44000053   1.92000008  53.54999924
H     7.05999947   1.02999997  53.18000031
H     8.60999966  -0.59999996  49.43000031
H    16.70999908   1.13000000  49.15000153
H     5.82000017  -0.65999997  51.90000153
H     6.44999981  -1.19999993  50.30000305
