96

S    17.35999870   1.70000005  59.91000366
C    20.03999901   1.72000003  59.25000000
C    18.76000023   1.39999998  58.87000275
C    18.44000053   0.86000001  57.57999802
C    19.47000122   0.68000007  56.68000031
C    20.79999924   1.01999998  57.02000046
C    21.86000061   0.82999998  56.09000397
C    23.15000153   1.25000000  56.35000229
C    23.45999908   1.80999994  57.62000275
C    22.46999931   1.85000002  58.57999802
C    21.11000061   1.54999995  58.31999969
C    17.00000000   0.68000007  57.41000366
C    16.35000038   0.99000001  58.62999725
C    14.96999931   0.90000004  58.63999939
C    24.82999992   2.38000011  57.88999939
H    25.27072144   1.59807491  58.50843048
H    20.17000008   2.09999990  60.26000214
H    19.22999954   0.41000003  55.65000153
H    21.60000038   0.54000002  55.07999802
H    23.97000122   1.14999998  55.65000153
H    22.67999840   2.16000009  59.59999847
H    14.46000004   1.44999993  59.43999863
H    25.36000061   2.61000013  56.95000076
H    24.65999985   3.32999992  58.41999817
S    13.80000019  -0.28000000  55.02999878
C    11.10000038  -0.24000001  55.75000000
C    12.41000080   0.03000000  56.07999802
C    12.79999924   0.48999998  57.37999725
C    11.79999924   0.61000001  58.33000183
C    10.43000031   0.41999999  58.01000214
C     9.42000008   0.48000002  59.01000214
C     8.14999962   0.01000000  58.81000137
C     7.79999971  -0.32999998  57.47000122
C     8.71000004  -0.38000000  56.45000076
C    10.06000042   0.01000000  56.69000244
C    14.25000000   0.45000002  57.52999878
C    14.93000031   0.09999999  56.33999634
C    16.31000137   0.25000000  56.26999664
C     6.37000036  -0.68000007  57.14000320
H     6.09978342  -0.22489834  56.18712997
H    11.00000000  -0.78000003  54.81999969
H    11.96000004   0.92000002  59.36000061
H     9.78999996   0.71000004  60.00999832
H     7.49000025  -0.22000000  59.64000320
H     8.52999973  -0.79999995  55.45999908
H    16.90999985  -0.07000000  55.41999817
H     5.69000006  -0.50999999  57.97999954
H     6.30000019  -1.77999997  57.11000061
S    18.09000015   2.20000005  53.83999634
C    20.73999786   2.40999985  53.23999786
C    19.51000023   1.95999992  52.81000137
C    19.30999947   1.48000002  51.46999741
C    20.36999893   1.36999989  50.59999847
C    21.61999893   1.89999998  51.03000259
C    22.79999924   1.66999996  50.26000214
C    24.02000046   2.09000015  50.72999954
C    24.18999863   2.79000020  51.95999908
C    23.12000084   2.82000017  52.81999969
C    21.84000015   2.38999987  52.36000061
C    17.86999893   1.28999996  51.30000305
C    17.12000084   1.65000010  52.44999695
C    15.72999954   1.65999997  52.48000336
C    25.56999969   3.31999993  52.29000092
H    25.93881416   2.71713042  53.11983490
H    20.95000076   2.59000015  54.29000092
H    20.26000023   0.75999999  49.71000290
H    22.77000046   1.15999997  49.29999924
H    24.86999893   1.75999999  50.14999771
H    23.16999817   3.28000021  53.81000137
H    15.29000092   1.94999993  53.43999863
H    26.15999985   3.25000000  51.37000275
H    25.43000031   4.36999989  52.54000092
S    14.65999985   0.69000000  48.81999969
C    11.98999977   0.24000001  49.56999969
C    13.25000000   0.69999999  49.88999939
C    13.60000038   1.13999999  51.20999908
C    12.53999901   1.23000002  52.08000183
C    11.21999931   0.82000005  51.79000092
C    10.14000034   0.82000005  52.70999908
C     8.85000038   0.41999999  52.43999863
C     8.57999992  -0.13000000  51.16000366
C     9.61000061  -0.23000000  50.25000000
C    10.90999985   0.29999998  50.47999954
C    15.03000069   1.41000009  51.30000305
C    15.77999973   1.08999991  50.13999939
C    17.15999985   0.90999997  50.15999603
C     7.13999987  -0.46000001  50.83000183
H     6.66952324   0.21720144  50.11715698
H    11.79999924  -0.38000000  48.69999695
H    12.76000023   1.52999997  53.11000061
H    10.38000011   1.36000013  53.62999725
H     8.06999969   0.57999998  53.18000031
H     9.35999966  -0.55000001  49.23999786
H    17.67000008   0.69000000  49.22999954
H     6.54999971  -0.54000002  51.75000000
H     6.98000002  -1.44999993  50.38000107
