96

S    16.92000008   1.74000001  60.07999802
C    19.62000084   2.07999992  59.45000076
C    18.37000084   1.65000010  59.06999969
C    18.02999878   1.16999996  57.76000214
C    19.04000092   0.99000001  56.84000015
C    20.36999893   1.28999996  57.22999954
C    21.50000000   0.94999999  56.44000244
C    22.80999947   1.21000004  56.77000046
C    23.08000183   1.74000001  58.06000137
C    22.03000069   2.05999994  58.88999939
C    20.68000031   1.82999992  58.53000259
C    16.59000015   0.97000003  57.64999771
C    15.80000019   1.22000003  58.81000137
C    14.42000008   1.33000004  58.88000107
C    24.47000122   2.16999984  58.47000122
H    24.99073410   1.64213312  59.26893234
H    19.95000076   2.26999998  60.47000122
H    18.92000008   0.54000002  55.86000061
H    21.31000137   0.65999997  55.40999985
H    23.59000015   1.07000005  56.03000259
H    22.22999954   2.49000001  59.86999893
H    13.92000008   1.63000000  59.79999924
H    25.19000053   2.04999995  57.63999939
H    24.47000122   3.24000001  58.70999908
S    13.48999977   0.20999999  55.15999603
C    10.78999996   0.03000000  55.73999786
C    12.05999947   0.28999999  56.19999695
C    12.28999996   0.75999999  57.52999878
C    11.26999950   0.79000002  58.47000122
C     9.98000050   0.56000000  57.94000244
C     8.84000015   0.75999999  58.76999664
C     7.59999990   0.24000001  58.50000000
C     7.37999964  -0.41999999  57.25999832
C     8.36999989  -0.35999998  56.30000305
C     9.70000076   0.02000000  56.63999939
C    13.71000099   1.04999995  57.70999908
C    14.46000004   0.69000000  56.56000137
C    15.85000038   0.71999997  56.49000168
C     6.03999996  -0.97000003  56.81999969
H     5.66846943  -0.41984892  55.95547867
H    10.62999916  -0.14999999  54.68000031
H    11.51999950   1.00000000  59.51000214
H     9.01000023   1.30999994  59.69999695
H     6.83000040   0.24000001  59.27000046
H     8.28999996  -0.45000002  55.21999741
H    16.36999893   0.65999997  55.54000092
H     5.23999977  -0.82000005  57.56000137
H     6.19999981  -2.05999994  56.79999924
S    17.53999901   2.03999996  53.80000305
C    20.22000122   2.31999993  53.02999878
C    18.94000053   1.93000007  52.71999741
C    18.61999893   1.33000004  51.45999908
C    19.68000031   1.26999998  50.56999969
C    21.00000000   1.72000003  50.83000183
C    22.10000038   1.62000000  49.93999863
C    23.40999985   1.82999992  50.31000137
C    23.64999962   2.40999985  51.58000183
C    22.63999939   2.63999987  52.49000168
C    21.31000137   2.27999997  52.11999893
C    17.18000031   1.15999997  51.31999969
C    16.46000099   1.59999990  52.45999908
C    15.10000038   1.89999998  52.50000000
C    25.06000137   2.71000004  52.02999878
H    25.47881126   2.04984379  52.78953171
H    20.45000076   2.49000001  54.08000183
H    19.51000023   0.78000003  49.61999893
H    21.90000153   1.19999993  48.95999908
H    24.30999947   1.50000000  49.79999924
H    22.89999962   3.03999996  53.47000122
H    14.68999958   2.22000003  53.44999695
H    25.62999916   2.57999992  51.11000061
H    25.31999969   3.74000025  52.29000092
S    13.93000031   0.68000007  48.93000031
C    11.31000042   0.37000000  49.68999863
C    12.53999901   0.90999997  50.00000000
C    12.89000034   1.49000001  51.25999832
C    11.92000008   1.53999996  52.25000000
C    10.59000015   1.21000004  51.91999817
C     9.48000050   1.38000000  52.80000305
C     8.17000008   1.14999998  52.43999863
C     7.92999983   0.46000001  51.22000122
C     8.97999954   0.09999999  50.40999985
C    10.29000092   0.59000003  50.65000153
C    14.34000015   1.59999990  51.36000061
C    15.05000019   1.28000009  50.17000198
C    16.40999985   1.00999999  50.15999603
C     6.58999968  -0.09000000  50.79999924
H     6.19871235   0.30128729  49.86090851
H    11.11999989  -0.08000001  48.72000122
H    12.23000050   1.93000007  53.20999908
H     9.71000004   1.70000005  53.81000137
H     7.42000008   1.25999999  53.20999908
H     8.80999947  -0.48000002  49.50000000
H    16.93000031   0.86000001  49.22000122
H     5.89999962   0.03000000  51.63999939
H     6.69000053  -1.18000007  50.76000214
