96

S    17.26000023   2.26999998  59.61999893
C    19.96000099   2.09999990  59.05000305
C    18.67000008   1.75999999  58.68000031
C    18.35000038   1.23000002  57.39999771
C    19.36000061   1.11000001  56.46999741
C    20.69999886   1.38999999  56.84000015
C    21.78999901   1.35000002  55.91999817
C    23.05000114   1.75999999  56.30000305
C    23.39999962   2.19000006  57.61000061
C    22.32999992   2.39999986  58.44999695
C    21.02999878   1.93000007  58.13000107
C    16.90999985   1.28999996  57.15000153
C    16.21000099   1.74000001  58.29000092
C    14.82999992   1.79000008  58.40999985
C    24.80999947   2.69000006  57.83000183
H    25.33073235   2.16213322  58.62893295
H    20.03999901   2.57999992  60.00999832
H    19.19999886   0.46999997  55.59999847
H    21.45000076   0.92000002  54.98000336
H    23.82999802   1.79000008  55.54999924
H    22.40999985   2.94000006  59.38000107
H    14.35999966   2.00999999  59.36000061
H    25.29000092   2.53999996  56.84999847
H    24.90999985   3.77999997  57.91999817
S    13.73999977   0.20999999  54.88999939
C    11.09000015   0.14000000  55.61999893
C    12.35000038   0.59000003  55.93999863
C    12.64999962   1.25999999  57.15999985
C    11.61000061   1.58000004  58.01000214
C    10.34000015   0.97999996  57.83000183
C     9.23999977   1.16999996  58.72000122
C     8.00000000   0.62000000  58.47999954
C     7.78999996  -0.12000000  57.29999924
C     8.80999947  -0.32999998  56.39999771
C    10.06999969   0.29999998  56.59000015
C    14.09000015   1.43000007  57.27000427
C    14.78999996   0.86000001  56.17000198
C    16.17000008   0.83999997  56.04999924
C     6.44000006  -0.51999998  56.72999954
H     6.13512230  -0.03786737  55.80118561
H    10.98000050  -0.55000001  54.78000259
H    11.71000004   2.17999983  58.89999771
H     9.44000053   1.89999998  59.51000214
H     7.17000008   1.05999994  59.02999878
H     8.60999966  -0.90000004  55.50000000
H    16.63999939   0.39999998  55.17000198
H     5.68000031  -0.29999998  57.49000168
H     6.32000017  -1.58999991  56.52000046
S    14.37999916  -1.77999997  52.01000214
C    11.73999977  -2.29999995  52.68000031
C    13.05999947  -2.30999994  53.06999969
C    13.50000000  -2.82999992  54.33000183
C    12.56999969  -3.40000010  55.17000198
C    11.19999981  -3.40000010  54.79999924
C    10.31999969  -4.09000015  55.68999863
C     8.97000027  -4.11999989  55.45000076
C     8.48999977  -3.56999993  54.22999954
C     9.35999966  -3.00000000  53.33000183
C    10.76000023  -2.87999988  53.54000092
C    14.93999958  -2.63999987  54.43000031
C    15.57000065  -2.07999992  53.29000092
C    16.93000031  -1.77999997  53.30999756
C     7.00000000  -3.55999994  54.00000000
H     6.65780497  -3.21780491  53.02331924
H    11.42000008  -1.92000008  51.72000122
H    12.88000011  -3.98000002  56.04000092
H    10.76000023  -4.67000008  56.50000000
H     8.34999943  -4.53999996  56.24000168
H     9.02999973  -2.75000000  52.32999802
H    17.43999863  -1.31999993  52.48000336
H     6.65999985  -4.61000013  54.01000214
H     6.51000023  -3.10999990  54.86999893
S    18.30999947  -3.44000006  56.63999939
C    20.93000031  -2.66000009  56.09000397
C    19.60000038  -2.59000015  55.76000214
C    19.15999985  -1.97000003  54.54999924
C    20.06999969  -1.49000001  53.61999893
C    21.45000076  -1.50999999  53.93000031
C    22.40999985  -0.92000002  53.06000137
C    23.75000000  -0.99000001  53.34000015
C    24.14999962  -1.52999997  54.59000015
C    23.23999786  -2.00000000  55.51000214
C    21.86000061  -2.09000015  55.18000031
C    17.73999977  -2.20000005  54.38000107
C    17.11000061  -2.75999999  55.52000046
C    15.73999977  -2.99000001  55.52999878
C    25.61000061  -1.47000003  54.95999908
H    25.92126465  -1.37096143  55.99990463
H    21.21999931  -3.09999990  57.04000092
H    19.71999931  -1.00999999  52.70999908
H    22.04999924  -0.54000002  52.09999847
H    24.51999855  -0.62000000  52.68000031
H    23.57999992  -2.23000002  56.52000046
H    15.22999954  -3.51999998  56.32999802
H    26.09999847  -0.71999997  54.33000183
H    25.95999908  -2.48000002  54.71000290
