96

S    17.02999878   1.58000004  60.13000107
C    19.67000008   2.00999999  59.34999847
C    18.43000031   1.50999999  59.03999710
C    18.12999916   1.05999994  57.70999908
C    19.13999939   1.10000002  56.77000046
C    20.43999863   1.58999991  57.06999969
C    21.50000000   1.43000007  56.13999939
C    22.80999947   1.72000003  56.45000076
C    23.12000084   2.22000003  57.75000000
C    22.09000015   2.36000013  58.64999771
C    20.73999786   1.95999992  58.41999817
C    16.69000053   1.04999995  57.49000168
C    16.01000023   1.34000003  58.69999695
C    14.61999989   1.38999999  58.72000122
C    24.44999886   2.79999995  58.15000153
H    24.89235115   2.18641496  58.93481827
H    19.82999992   2.50000000  60.31000137
H    18.90999985   0.59000003  55.84000015
H    21.18999863   1.00999999  55.18000031
H    23.52000046   1.65999997  55.63999939
H    22.32000160   2.89000010  59.56999969
H    14.09999943   1.66999996  59.62999725
H    25.07999802   2.82999992  57.25000000
H    24.38999939   3.84999990  58.44999695
S    13.50999928   0.44000000  54.99000168
C    10.88000107   0.02000000  55.83000183
C    12.13999939   0.50000000  56.11000061
C    12.51000023   0.90000004  57.43000031
C    11.51999950   1.02999997  58.39000320
C    10.19999981   0.56999999  58.15000153
C     9.13999939   0.63000000  59.09000015
C     7.88999987   0.12000000  58.79000092
C     7.57000017  -0.27000001  57.47000122
C     8.56999969  -0.38000000  56.52999878
C     9.89999962   0.02000000  56.86000061
C    13.93000031   1.19999993  57.51999664
C    14.60999966   0.86000001  56.31999969
C    16.00000000   0.83999997  56.29000092
C     6.11999989  -0.57999998  57.15999985
H     5.78759718  -0.22637984  56.18400574
H    10.69000053  -0.38000000  54.82999802
H    11.71000004   1.49000001  59.36000061
H     9.26999950   1.03999996  60.08999634
H     7.07000017   0.31000000  59.47999954
H     8.28999996  -0.64999998  55.52000046
H    16.51000023   0.71999997  55.34000015
H     5.38000011  -0.25999999  57.90999985
H     6.00000000  -1.66999996  57.18000031
S    14.04999924  -1.66999996  52.08000183
C    11.44000053  -2.21000004  52.77000046
C    12.76999950  -2.38999987  53.06999969
C    13.22000027  -3.01999998  54.27000046
C    12.23000050  -3.61000013  55.02999878
C    10.85000038  -3.54999995  54.71000290
C     9.86999989  -4.19999981  55.51000214
C     8.55000019  -3.98000002  55.22999573
C     8.11999989  -3.16000009  54.15000153
C     9.03999996  -2.64999986  53.27000046
C    10.43000031  -2.86000013  53.52000427
C    14.65999985  -2.82000017  54.43999863
C    15.21999931  -2.13000011  53.34000015
C    16.56999969  -1.79000008  53.34000015
C     6.63999987  -3.05999994  53.87000275
H     6.42684317  -3.87710190  53.18079376
H    11.11999989  -1.52999997  51.97999954
H    12.53000069  -4.18000031  55.90999985
H    10.13000011  -4.92000008  56.29000092
H     7.79999971  -4.46999979  55.84000015
H     8.69999981  -1.89999998  52.56000137
H    17.02999878  -1.49000001  52.41000366
H     6.14000034  -3.21000004  54.84000397
H     6.28999996  -2.04999995  53.59000397
S    18.04999924  -3.12999988  56.77000046
C    20.71000099  -2.69000006  55.93000031
C    19.36000061  -2.50999975  55.73999786
C    18.81999969  -1.95999992  54.54000092
C    19.78999901  -1.53999996  53.64999771
C    21.18999863  -1.48000002  53.83999634
C    22.10000038  -0.76999998  53.00000000
C    23.43000031  -0.75000000  53.33000183
C    23.92999840  -1.36999989  54.50000000
C    23.05999947  -2.13000011  55.25000000
C    21.64999962  -2.09000015  55.06000137
C    17.36999893  -2.04999995  54.45999908
C    16.79999924  -2.70000005  55.59000015
C    15.47000027  -3.10999990  55.54999924
C    25.34000015  -1.01999998  54.92000198
H    25.63164330  -1.46102262  55.87317657
H    21.07999992  -3.42000008  56.65000153
H    19.37999916  -1.13000000  52.72999573
H    21.68000031  -0.29999998  52.11000061
H    24.13000107  -0.06000000  52.87000275
H    23.32999992  -2.64999986  56.17000198
H    14.94999981  -3.60000014  56.37000275
H    25.45000076   0.07000000  54.94999695
H    26.04000092  -1.28000009  54.12000275
