96

S    16.56999969   1.26999998  59.86000061
C    19.29999924   1.38000000  59.27999878
C    18.02999878   0.97999996  58.90999603
C    17.72999954   0.46000001  57.61000061
C    18.79999924   0.29999998  56.73999786
C    20.10000038   0.82000005  56.97999954
C    21.21999931   0.56999999  56.13999939
C    22.52000046   0.85000002  56.51000214
C    22.70999908   1.35000002  57.83000183
C    21.68999863   1.44999993  58.75000000
C    20.35000038   1.24000001  58.34000015
C    16.29999924   0.34000003  57.39999771
C    15.53999996   0.65999997  58.54999924
C    14.14999962   0.65999997  58.60000229
C    24.11999893   1.72999990  58.20999908
H    24.58163452   0.92746675  58.78526688
H    19.57999992   1.52999997  60.31999969
H    18.71000099  -0.28000000  55.83000183
H    20.97999954   0.06000000  55.21999741
H    23.16999817   0.71999997  55.65000153
H    21.90999985   1.72000003  59.78000259
H    13.57999992   0.75999999  59.52000046
H    24.70999908   1.89999998  57.29999924
H    24.06999969   2.70000005  58.72000122
S    13.19000053  -0.27000001  54.87999725
C    10.48999977  -0.59000003  55.51000214
C    11.72999954  -0.12000000  55.86999893
C    12.02999973   0.38000000  57.18000031
C    10.98000050   0.59999996  58.06000137
C     9.67000008   0.19000000  57.69000244
C     8.59000015   0.55000001  58.54999924
C     7.28999996   0.22000000  58.25000000
C     7.03999996  -0.48000002  57.04000092
C     8.05000019  -0.75999999  56.16000366
C     9.40999985  -0.41000003  56.40999603
C    13.45999908   0.50000000  57.38999939
C    14.22999954   0.14999999  56.25999832
C    15.60999966  -0.07000000  56.25000000
C     5.63000011  -0.96000004  56.79000092
H     5.25467253  -0.52801937  55.86230469
H    10.26000023  -1.00999999  54.52999878
H    11.05000019   1.03999996  59.03999710
H     8.84000015   1.02999997  59.48999786
H     6.52999973   0.43000001  59.01000214
H     7.73999977  -1.38999999  55.33000183
H    16.02000046  -0.39999998  55.30000305
H     4.90000010  -0.73000002  57.57999802
H     5.59999990  -2.05999994  56.77000046
S    13.28999996  -2.14000010  51.81000137
C    10.64000034  -2.91000009  52.50000000
C    12.00000000  -3.01999998  52.67000198
C    12.53000069  -3.67000008  53.82999802
C    11.71000004  -4.30000019  54.75000000
C    10.29999924  -4.18000031  54.59000015
C     9.36999989  -4.76999998  55.50000000
C     8.01999950  -4.61000013  55.30000305
C     7.46999979  -4.03999996  54.13000107
C     8.36000061  -3.48000002  53.23999786
C     9.77000046  -3.54999995  53.41999817
C    13.94000053  -3.37000012  54.02000046
C    14.52999973  -2.59000015  52.98999786
C    15.81999969  -2.07999992  53.09000015
C     6.01999998  -4.19000006  53.74000168
H     5.72117376  -3.77022028  52.77948761
H    10.34999943  -2.47000003  51.55000305
H    12.18000031  -4.84000015  55.56000137
H     9.77000046  -5.32999992  56.32999802
H     7.26000023  -4.98000002  55.98999786
H     8.09000015  -3.03999996  52.28000259
H    16.20000076  -1.25999999  52.48000336
H     5.88000011  -5.27999973  53.69999695
H     5.46999979  -3.79999995  54.59999847
S    17.30999947  -3.86999989  56.29000092
C    19.97999954  -3.31999993  55.59999847
C    18.63000107  -3.22000003  55.31000137
C    18.12000084  -2.44000006  54.22999954
C    19.00000000  -1.80000007  53.37999725
C    20.36999893  -1.77999997  53.74000168
C    21.31000137  -1.12000000  52.88999939
C    22.65000153  -1.19000006  53.18000031
C    23.18000031  -2.00999999  54.20999908
C    22.29999924  -2.75999999  54.95999908
C    20.89999962  -2.61000013  54.79000092
C    16.67000008  -2.52999997  54.12000275
C    16.07999992  -3.32999992  55.13000107
C    14.75000000  -3.71000004  55.10000229
C    24.67000008  -2.16999984  54.40999985
H    24.91947365  -2.28404498  55.46492004
H    20.22000122  -3.95000005  56.45000076
H    18.63000107  -1.24000001  52.52999878
H    20.88999939  -0.50000000  52.11000061
H    23.36999893  -0.64000005  52.56999969
H    22.72999954  -3.53999996  55.58000183
H    14.34000015  -4.34999990  55.87999725
H    25.20000076  -1.35000002  53.92000198
H    25.02000046  -3.10999990  53.95000076
