96

S    17.82999992   2.01999998  60.11000061
C    20.52999878   2.04999995  59.27999878
C    19.22000122   1.67999995  59.06000137
C    18.88000107   1.46000004  57.69000244
C    19.86999893   1.35000002  56.72999954
C    21.22999954   1.64000010  57.00000000
C    22.29999924   1.35000002  56.11000061
C    23.59000015   1.62000000  56.47999573
C    23.90999985   2.27999997  57.70000076
C    22.93000031   2.38999987  58.66000366
C    21.57999992   2.05999994  58.33000183
C    17.43999863   1.46000004  57.50999832
C    16.76000023   1.77999997  58.70999908
C    15.38000011   1.90999997  58.70999908
C    25.31999969   2.52999997  58.18999863
H    25.68294525   1.76852560  58.88031006
H    20.73999786   2.50999975  60.24000168
H    19.63999939   1.12000000  55.68999863
H    22.09000015   0.81000000  55.19000244
H    24.40999985   1.39999998  55.79999924
H    23.12000084   2.75000000  59.66999817
H    14.96999931   2.16999984  59.68999863
H    26.04000092   2.54999995  57.36000061
H    25.36999893   3.49000001  58.72000122
S    14.19999981   0.76999998  55.07999802
C    11.51000023   0.76999998  55.81999969
C    12.79999924   1.16999996  56.09000397
C    13.20000076   1.58000004  57.41000366
C    12.28000069   1.77999997  58.43000031
C    10.92000008   1.52999997  58.15000153
C     9.96000004   1.58000004  59.20000076
C     8.69999981   1.08000004  58.99000168
C     8.32999992   0.64999998  57.69000244
C     9.21000004   0.64999998  56.63000107
C    10.55999947   1.03999996  56.84999847
C    14.63999939   1.64000010  57.55000305
C    15.31999969   1.33000004  56.33999634
C    16.70999908   1.28999996  56.31999969
C     6.96000004   0.06000000  57.42000198
H     6.38917494   0.73071939  56.77782440
H    11.26999950   0.16000001  54.95999908
H    12.72999954   1.93000007  59.40000153
H    10.34000015   1.74000001  60.20999908
H     8.01999950   0.90999997  59.81999969
H     8.93000031   0.17000002  55.70000076
H    17.23999977   1.19999993  55.38000107
H     6.38000011  -0.05000000  58.34999847
H     7.04999971  -0.93999994  56.97000122
S    15.00000000  -1.34000003  51.86000061
C    12.28999996  -1.72999990  52.51999664
C    13.61999989  -1.94000006  52.80000305
C    14.01000023  -2.53999996  54.03999710
C    13.02000046  -2.99000001  54.88999939
C    11.64999962  -2.86999989  54.58000183
C    10.65999985  -3.35999990  55.47999954
C     9.31999969  -3.10999990  55.28999710
C     8.94999981  -2.32999992  54.15999985
C     9.85999966  -1.95999992  53.20000076
C    11.26000023  -2.21000004  53.36000061
C    15.44999981  -2.47000003  54.26000214
C    16.07999992  -1.79000008  53.18999863
C    17.34000015  -1.22000003  53.34999847
C     7.51999950  -1.89999998  53.94000244
H     7.05748129  -2.31270885  53.04342651
H    11.97999954  -1.24000001  51.59999847
H    13.31999969  -3.28000021  55.90000153
H    11.03999996  -3.93000007  56.32999802
H     8.64000034  -3.51999998  56.03000259
H     9.55000019  -1.25999999  52.43000031
H    17.77000046  -0.71000004  52.49000168
H     6.94000006  -2.07999992  54.85000229
H     7.53000021  -0.82999998  53.73000336
S    18.76000023  -2.94000006  56.60999680
C    21.48999977  -2.37000012  55.86000061
C    20.13000107  -2.37000012  55.63999939
C    19.56999969  -1.80999994  54.45000076
C    20.48999977  -1.36999989  53.52000427
C    21.88999939  -1.54999995  53.66000366
C    22.84000015  -0.88999999  52.83000183
C    24.18999863  -0.97000003  53.04000092
C    24.70999908  -1.65000010  54.16999817
C    23.85000038  -2.21000004  55.07999802
C    22.44999886  -2.16000009  54.84000397
C    18.12000084  -1.70000005  54.40999985
C    17.50000000  -2.38000011  55.48999786
C    16.17000008  -2.75000000  55.43000031
C    26.11999893  -1.29999995  54.59999847
H    26.29758644  -1.72620571  55.58737564
H    21.88999939  -2.66999984  56.83000183
H    20.10000038  -0.64000005  52.81999969
H    22.46000099  -0.27000001  52.01000214
H    24.87999916  -0.39000002  52.43000031
H    24.20999908  -2.26999998  56.11000061
H    15.65000057  -3.28000021  56.23000336
H    26.18999863  -0.20999999  54.61000061
H    26.78999901  -1.65000010  53.80000305
