96

S    16.14999962   1.70000005  59.55999756
C    18.86999893   1.79000008  59.01000214
C    17.59000015   1.56000006  58.54000092
C    17.28000069   0.99000001  57.27000427
C    18.38000107   0.61000001  56.52000046
C    19.70999908   0.94999999  56.83000183
C    20.82999992   0.87000000  55.94999695
C    22.06999969   1.38000000  56.26999664
C    22.32999992   1.94999993  57.55000305
C    21.25999832   2.02999997  58.40999985
C    19.93999863   1.58000004  58.11000061
C    15.84000015   0.85000002  57.05999756
C    15.10000038   1.28000009  58.18999863
C    13.76999950   1.69000006  58.15999985
C    23.72999954   2.42000008  57.87000275
H    24.28262711   1.62648511  58.37303162
H    19.04999924   2.38999987  59.88999939
H    18.26000023   0.17000002  55.52999878
H    20.61000061   0.51999998  54.94999695
H    22.92000008   1.34000003  55.59999847
H    21.40000153   2.54999995  59.36000061
H    13.26000023   2.11999989  59.02000046
H    24.26000214   2.70000005  56.95000076
H    23.54000092   3.38999987  58.34999847
S    12.57999992   0.14000000  54.75999832
C     9.89999962   0.07000000  55.51000214
C    11.16000080   0.56999999  55.73999786
C    11.54999924   1.11000001  57.01000214
C    10.59000015   1.24000001  57.98999786
C     9.28999996   0.75000000  57.77000046
C     8.23000050   0.79000002  58.72000122
C     6.91999960   0.51999998  58.37999725
C     6.53999996  -0.12000000  57.16999817
C     7.55999994  -0.25000000  56.25000000
C     8.89000034   0.19999999  56.50000000
C    13.00000000   1.28999996  57.06999969
C    13.71999931   0.78000003  55.96000290
C    15.07999992   0.51999998  55.93000031
C     5.12000036  -0.54000002  56.90000153
H     4.63022804   0.14142174  56.20438004
H     9.72000027  -0.32000002  54.51000214
H    10.93999958   1.67999995  58.93000031
H     8.45000076   1.23000002  59.68999863
H     6.10000038   0.75000000  59.03999710
H     7.40000010  -0.82000005  55.34000015
H    15.50000000   0.22000000  54.98000336
H     4.63000011  -0.64999998  57.88000107
H     5.25000000  -1.57000005  56.53999710
S    13.31999969  -2.04999995  52.02999878
C    10.65000057  -2.56999993  52.63999939
C    11.97000027  -2.76999998  52.93000031
C    12.42000008  -3.44000006  54.12000275
C    11.46999931  -3.88999987  55.00999832
C    10.08999920  -3.73000002  54.72999954
C     9.06999969  -4.15000010  55.63000107
C     7.72000027  -4.00999975  55.40000153
C     7.27999973  -3.28000021  54.27000046
C     8.25000000  -2.93000007  53.36000061
C     9.65999985  -3.02999997  53.54999924
C    13.81000042  -3.08999991  54.36999893
C    14.48999977  -2.45000005  53.29999924
C    15.82999992  -2.05999994  53.33000183
C     5.79999971  -3.02999997  54.16999817
H     5.35191250  -3.67723799  53.41607285
H    10.39999962  -2.15000010  51.66999817
H    11.78999996  -4.23999977  55.98999786
H     9.40999985  -4.53000021  56.59000015
H     7.03999996  -4.63000011  55.97999954
H     8.03999996  -2.36000013  52.45999908
H    16.28000069  -1.54999995  52.49000168
H     5.35000038  -3.23000002  55.14999771
H     5.72000027  -1.94999993  53.95999908
S    17.10000038  -3.58999991  56.79999924
C    19.76000023  -3.12999988  56.18000031
C    18.44000053  -2.92000008  55.84999847
C    18.02999878  -2.31999993  54.61000061
C    19.00000000  -1.93000007  53.70999908
C    20.36000061  -2.09000015  54.05000305
C    21.35999870  -1.75999999  53.09000015
C    22.69000053  -1.98000002  53.37999725
C    23.13999939  -2.59999990  54.56999969
C    22.14999962  -2.89999986  55.48999786
C    20.76999855  -2.61999989  55.31999969
C    16.57999992  -2.37000012  54.47000122
C    15.95000076  -3.02999997  55.56000137
C    14.60999966  -3.35999990  55.48999786
C    24.61999893  -2.84000015  54.75000000
H    24.96126938  -2.55560899  55.74536896
H    20.00999832  -3.72000003  57.04999924
H    18.68999863  -1.59999990  52.71999741
H    21.07000160  -1.19999993  52.19999695
H    23.48999977  -1.76999998  52.68000031
H    22.39000130  -3.49000001  56.37000275
H    14.06000042  -3.84999990  56.29000092
H    25.22999954  -2.31999993  53.99000168
H    24.72999954  -3.91999984  54.59999847
