96

S    16.92000008   1.72999990  59.98000336
C    19.59000015   2.07999992  59.23999786
C    18.27999878   1.86000001  58.86000061
C    17.95999908   1.46000004  57.51999664
C    18.95000076   1.43999994  56.55000305
C    20.26000023   1.85000002  56.86999893
C    21.30000114   1.80000007  55.89000320
C    22.57999802   2.10999990  56.29000092
C    22.85000038   2.52999997  57.62000275
C    21.90999985   2.46000004  58.62999725
C    20.56999969   2.21000004  58.22999954
C    16.52000046   1.24000001  57.43000031
C    15.80000019   1.38000000  58.64999771
C    14.42000008   1.25999999  58.74000168
C    24.30000114   2.72000027  58.01000214
H    24.67077637   2.03549337  58.77294159
H    19.86999893   2.25000000  60.27999878
H    18.77000046   0.96000004  55.59000015
H    21.02999878   1.43000007  54.91000366
H    23.38999939   1.92000008  55.59000015
H    22.04999924   2.59999990  59.68999863
H    13.78000069   1.38000000  59.61000061
H    24.86000061   2.63999987  57.05999756
H    24.30999947   3.76999998  58.34000015
S    13.35999966   0.64000005  54.93000031
C    10.71000004   0.25999999  55.54000092
C    11.95000076   0.61000001  56.00000000
C    12.28000069   0.94999999  57.36000061
C    11.21000099   1.03999996  58.22000122
C     9.86999989   0.78000003  57.81999969
C     8.69999981   0.87000000  58.61999893
C     7.46000004   0.51999998  58.13000107
C     7.26999998   0.08000001  56.79999924
C     8.32999992   0.14999999  55.91999817
C     9.63000011   0.41000003  56.45000076
C    13.71999931   1.02999997  57.55000305
C    14.42999935   0.79999995  56.33999634
C    15.80999947   0.87000000  56.27999878
C     5.89999962  -0.41000003  56.38000107
H     5.22912216   0.30369973  55.90182114
H    10.57999992  -0.23000000  54.58000183
H    11.52999973   1.19000006  59.25000000
H     8.76999950   1.21000004  59.65000153
H     6.69000053   0.48000002  58.89999771
H     8.14000034  -0.11000000  54.88999939
H    16.39000130   0.55000001  55.41999817
H     5.36000013  -0.93000001  57.18000031
H     6.06999969  -1.23000002  55.65999985
S    17.30999947   2.33999991  53.34000015
C    20.00999832   2.73999977  52.55000305
C    18.71999931   2.33999991  52.27000427
C    18.35000038   1.85000002  50.97000122
C    19.40999985   1.65000010  50.11000061
C    20.76000023   2.03999996  50.28999710
C    21.84000015   1.70000005  49.43000031
C    23.09999847   2.02999997  49.88999939
C    23.42000008   2.73999977  51.07999802
C    22.34999847   3.05999994  51.90000153
C    21.04000092   2.59000015  51.59000015
C    16.93000031   1.64000010  50.77000046
C    16.25000000   1.82999992  52.00000000
C    14.86999989   1.82999992  52.16999817
C    24.82000160   3.16000009  51.44000244
H    25.20230484   2.74937630  52.37452316
H    20.20999908   3.07999992  53.55999756
H    19.13999939   1.11000001  49.20000076
H    21.61000061   1.12000000  48.54000092
H    23.84000015   1.76999998  49.15000153
H    22.53000069   3.54999995  52.84999847
H    14.40999985   2.31999993  53.02000046
H    25.46999931   2.93000007  50.59000015
H    24.94999886   4.23999977  51.59000015
S    13.68000031   1.00999999  48.46000290
C    11.00999928   0.79999995  49.19000244
C    12.28000069   1.18000007  49.54000092
C    12.67000008   1.51999998  50.86999893
C    11.68000031   1.53999996  51.84000015
C    10.32999992   1.25999999  51.50000000
C     9.25000000   1.35000002  52.42000198
C     7.99000025   0.87000000  52.16999817
C     7.77999973   0.34000003  50.86999893
C     8.71999931   0.25000000  49.86999893
C    10.01000023   0.74000001  50.20000076
C    14.11000061   1.64000010  51.00999832
C    14.78999996   1.38999999  49.79000092
C    16.17000008   1.36000013  49.62999725
C     6.35999966  -0.09000000  50.58000183
H     5.88280296   0.43705359  49.75380707
H    10.67999935   0.39000002  48.23999786
H    11.87999916   1.70000005  52.90000153
H     9.44999981   1.65999997  53.43999863
H     7.21000004   0.71000004  52.91999817
H     8.47999954  -0.07000000  48.86000061
H    16.70999908   1.07000005  48.73000336
H     5.86000013   0.20999999  51.52000046
H     6.21999979  -1.15999997  50.43000031
