96

S    17.31999969   2.29999995  60.00999832
C    20.00999832   2.38000011  59.41999817
C    18.77000046   1.94000006  59.05000305
C    18.40999985   1.25999999  57.84000015
C    19.37999916   1.29999995  56.84999847
C    20.69999886   1.72000003  57.16999817
C    21.76000214   1.50999999  56.25000000
C    23.08000183   1.64000010  56.62000275
C    23.44000053   2.19000006  57.88000107
C    22.42000198   2.51999998  58.75000000
C    21.05999947   2.20000005  58.47999954
C    16.97999954   1.00000000  57.71999741
C    16.25000000   1.58000004  58.77999878
C    14.85999966   1.50000000  58.75999832
C    24.92000198   2.31999993  58.18000031
H    25.19825935   2.05601001  59.20028687
H    20.28000069   2.92000008  60.31999969
H    19.32999992   0.79000002  55.90000153
H    21.54000092   1.01999998  55.31000137
H    23.78999901   1.57000005  55.79999924
H    22.65000153   3.05999994  59.65999985
H    14.25000000   1.87000012  59.58000183
H    25.48999977   1.62000000  57.56000137
H    25.13999939   3.33999991  57.83000183
S    13.82999992   0.13000000  55.19000244
C    11.13999939   0.02000000  55.89000320
C    12.39999962   0.48999998  56.18999863
C    12.75000000   1.11000001  57.43000031
C    11.73999977   1.31999993  58.34999847
C    10.43000031   0.83999997  58.09999847
C     9.36999989   0.97000003  59.03999710
C     8.07999992   0.50999999  58.93000031
C     7.79999971  -0.05000000  57.64999771
C     8.78000069  -0.28000000  56.72000122
C    10.13000011   0.14999999  56.88000107
C    14.19999981   1.16999996  57.57999802
C    14.93999958   0.65999997  56.47999573
C    16.31999969   0.56000000  56.56000137
C     6.39999962  -0.54000002  57.34000397
H     5.81387901   0.09555256  56.67620087
H    10.92000008  -0.44000000  54.93999863
H    11.92999935   1.71000004  59.34999847
H     9.65999985   1.38999999  60.00000000
H     7.44999981   0.39999998  59.79999924
H     8.45000076  -0.85000002  55.86000061
H    16.90000153   0.35999998  55.65999985
H     5.88999987  -0.78000003  58.27999878
H     6.39999962  -1.53999996  56.90000153
S    14.56999969  -1.63000000  52.02000046
C    11.96000004  -2.04999995  52.88999939
C    13.28999996  -2.37000012  53.01000214
C    13.76999950  -3.23000002  54.06000137
C    12.81999969  -3.82999992  54.86000061
C    11.43000031  -3.73000002  54.62999725
C    10.47999954  -4.38000011  55.45999908
C     9.13999939  -4.05000019  55.35999680
C     8.65999985  -3.17999983  54.34999847
C     9.59000015  -2.59999990  53.52000427
C    11.00000000  -2.76999998  53.63999939
C    15.19000053  -2.94000006  54.22000122
C    15.78999996  -2.16000009  53.20000076
C    17.11000061  -1.75000000  53.27999878
C     7.20000029  -2.79000020  54.26000214
H     6.70961380  -3.18799496  53.37162018
H    11.56999969  -1.33000004  52.16999817
H    13.10999966  -4.28000021  55.80999756
H    10.90000057  -4.92000008  56.29000092
H     8.43999958  -4.48999977  56.05999756
H     9.17000008  -1.87999988  52.81999969
H    17.64000130  -1.11000001  52.57999802
H     6.70000029  -3.07999992  55.19000244
H     7.17000008  -1.69000006  54.20999908
S    18.42000008  -3.21000004  56.72000122
C    21.07999992  -2.61000013  56.14999771
C    19.75000000  -2.38999987  55.87999725
C    19.22999954  -1.75999999  54.69999695
C    20.13000107  -1.25000000  53.79000092
C    21.51000023  -1.51999998  54.01000214
C    22.50999832  -1.03999996  53.11999893
C    23.85999870  -1.16999996  53.34000015
C    24.30999947  -1.98000002  54.40999985
C    23.40999985  -2.38000011  55.38000107
C    22.01000023  -2.23000002  55.14999771
C    17.80999947  -1.97000003  54.47000122
C    17.22999954  -2.79999995  55.47000122
C    15.90999985  -3.21000004  55.38999939
C    25.78000069  -2.01999998  54.75999832
H    26.03482246  -1.72978663  55.77928162
H    21.54999924  -3.08999991  57.01000214
H    19.81999969  -0.64999998  52.94000244
H    22.25000000  -0.39999998  52.28000259
H    24.50000000  -0.68000007  52.61000061
H    23.75999832  -2.82000017  56.31000137
H    15.36999893  -3.65000010  56.23000336
H    26.35999870  -1.46000004  54.02000046
H    26.27000046  -3.00000000  54.72999954
