96

S    17.97000122   1.87999988  59.81999969
C    20.65999985   2.09999990  59.09000015
C    19.38999939   1.69000006  58.76999664
C    19.11000061   1.07000005  57.51999664
C    20.12000084   0.93999994  56.58000183
C    21.45000076   1.28999996  56.88999939
C    22.53999901   0.92000002  56.04999924
C    23.82999802   1.19999993  56.42000198
C    24.05999947   1.97000003  57.58999634
C    23.06999969   2.25000000  58.48999786
C    21.73000145   1.89999998  58.16999817
C    17.65999985   0.99000001  57.32999802
C    16.92000008   1.39999998  58.47000122
C    15.52999973   1.44999993  58.52000427
C    25.43999863   2.48000002  57.95000076
H    25.87366867   1.90414476  58.76757050
H    20.88999939   2.61999989  60.00999832
H    19.97999954   0.27000001  55.73999786
H    22.27999878   0.32999998  55.17000198
H    24.73999977   0.93999994  55.87999725
H    23.22000122   2.87999988  59.36999893
H    15.03999901   1.63000000  59.47000122
H    26.01000023   2.56000018  57.01000214
H    25.29999924   3.50000000  58.31999969
S    14.61999989   0.09000000  54.78000259
C    11.90000057   0.09000000  55.38000107
C    13.17999935   0.39000002  55.77000046
C    13.45999908   0.97999996  57.04999924
C    12.38999939   1.24000001  57.88000107
C    11.07999992   0.82999998  57.52999878
C    10.03000069   0.78000003  58.48999786
C     8.76000023   0.38000000  58.13000107
C     8.50000000  -0.14999999  56.84000015
C     9.48000050  -0.14000000  55.86999893
C    10.77999973   0.34000003  56.20999908
C    14.88000011   1.13000000  57.32999802
C    15.55999947   0.69999999  56.16000366
C    16.95000076   0.67000002  56.18000031
C     7.09000015  -0.64000005  56.60999680
H     6.47509623  -0.01079589  55.96649551
H    11.78999996  -0.59999996  54.54000092
H    12.60000038   1.57000005  58.88999939
H    10.31000042   1.12000000  59.47999954
H     8.00000000   0.41000003  58.89999771
H     9.35999966  -0.64000005  54.92000198
H    17.48999977   0.22000000  55.34999847
H     6.51000023  -0.97000003  57.48000336
H     7.26999998  -1.57000005  56.04999924
S    15.03999901  -1.87000012  51.90000153
C    12.32999992  -2.28999996  52.50000000
C    13.64999962  -2.48000002  52.81999969
C    14.01999950  -3.19999981  54.00000000
C    13.07000065  -3.61000013  54.91000366
C    11.69999981  -3.44000006  54.59999847
C    10.72000027  -3.89999986  55.52999878
C     9.40999985  -3.98000002  55.13999939
C     9.00000000  -3.30999994  53.95999908
C     9.94000053  -2.76999998  53.11000061
C    11.33999920  -2.87999988  53.33000183
C    15.46000004  -3.09999990  54.22000122
C    16.13999939  -2.45000005  53.15999985
C    17.47999954  -2.07999992  53.25000000
C     7.55999994  -2.93000007  53.70999908
H     7.19633245  -3.30792880  52.75448227
H    12.10000038  -1.79000008  51.56000137
H    13.38000107  -3.97000027  55.89000320
H    11.02000046  -4.28999996  56.50000000
H     8.60000038  -4.23000002  55.83000183
H     9.59999943  -2.16000009  52.28000259
H    17.93000031  -1.75000000  52.31999969
H     6.86999989  -3.19000006  54.52000046
H     7.55999994  -1.82999992  53.76999664
S    18.68999863  -3.63999987  56.70000076
C    21.34000015  -3.21000004  56.17000198
C    20.06000137  -3.15000010  55.68999863
C    19.64999962  -2.49000001  54.47999954
C    20.62999916  -1.94999993  53.66000366
C    21.96000099  -2.00000000  54.12000275
C    23.01000214  -1.31999993  53.41999817
C    24.31999969  -1.26999998  53.85000229
C    24.64999962  -1.95999992  55.04000092
C    23.68999863  -2.59999990  55.79000092
C    22.34999847  -2.68000007  55.33000183
C    18.20000076  -2.47000003  54.38999939
C    17.52000046  -3.07000017  55.47999954
C    16.21000099  -3.48000002  55.34000015
C    26.14000130  -2.11999989  55.26000214
H    26.45979118  -1.58701587  56.15541458
H    21.57999992  -3.55999994  57.16999817
H    20.35000038  -1.36999989  52.78999710
H    22.72000122  -0.82999998  52.50000000
H    25.03999901  -0.79999995  53.18000031
H    23.90999985  -3.03999996  56.76000214
H    15.75000000  -4.19999981  56.02000427
H    26.63999939  -1.71000004  54.36999893
H    26.45999908  -3.15000010  55.47000122
