96

S    16.93000031   1.48000002  60.17000198
C    19.63000107   1.81999993  59.61000061
C    18.40999985   1.33000004  59.20999908
C    18.12000084   0.88999999  57.87000275
C    19.15999985   0.90999997  56.95999908
C    20.45999908   1.29999995  57.36000061
C    21.53000069   1.29999995  56.42000198
C    22.79000092   1.70000005  56.81000137
C    23.00000000   2.14000010  58.13999939
C    21.97999954   2.30999994  59.05000305
C    20.69999886   1.80000007  58.68999863
C    16.69000053   0.63000000  57.70999908
C    15.88999939   1.04999995  58.80000305
C    14.50000000   1.16999996  58.76999664
C    24.36000061   2.50999975  58.69999695
H    24.80024338   1.70051920  59.28225708
H    19.70000076   2.25000000  60.61000061
H    18.95000076   0.51999998  55.97000122
H    21.48999977   0.85000002  55.44000244
H    23.59000015   1.67999995  56.07999802
H    22.23999977   2.59000015  60.06000137
H    14.02999973   1.79000008  59.52000046
H    24.93000031   2.75999999  57.80000305
H    24.20999908   3.48000002  59.18000031
S    13.69999981  -0.11000000  55.07999802
C    10.95999908  -0.17000002  55.59000015
C    12.20999908   0.25000000  55.97999954
C    12.46999931   0.87000000  57.25000000
C    11.39999962   1.24000001  58.04000092
C    10.11999989   0.71000004  57.76000214
C     9.02999973   0.90000004  58.64999771
C     7.76000023   0.50999999  58.29999924
C     7.57999992  -0.20999999  57.09000015
C     8.57999992  -0.41999999  56.16000366
C     9.89000034   0.03000000  56.50000000
C    13.89000034   0.82999998  57.56000137
C    14.68999958   0.35999998  56.47999573
C    16.05999947   0.17999999  56.53999710
C     6.17000008  -0.61000001  56.73999786
H     5.77256155   0.07132232  55.98770523
H    10.84000015  -0.96000004  54.86000061
H    11.54000092   1.65999997  59.02999878
H     9.19000053   1.24000001  59.66999817
H     6.90000010   0.50000000  58.95999908
H     8.51000023  -0.86000001  55.17000198
H    16.64999962  -0.23000000  55.72000122
H     5.56999969  -0.74000001  57.65999603
H     6.39999962  -1.58999991  56.31999969
S    13.66000080  -2.30999994  52.00000000
C    11.00000000  -2.94999981  52.78999710
C    12.35999966  -2.94999981  53.02000046
C    12.75000000  -3.38000011  54.33000183
C    11.84000015  -3.88999987  55.25000000
C    10.44999981  -3.91999984  54.98000336
C     9.48999977  -4.28000021  55.96000290
C     8.15999985  -4.33999968  55.61000061
C     7.73999977  -3.94000006  54.31999969
C     8.63000011  -3.30999994  53.47999954
C    10.03000069  -3.42999983  53.69999695
C    14.19000053  -3.25999999  54.47999954
C    14.78000069  -2.69000006  53.31999969
C    16.10999870  -2.30999994  53.31999969
C     6.30000019  -4.13999987  53.88000107
H     6.01495361  -3.52715039  53.02486038
H    10.57000065  -2.45000005  51.91999817
H    12.23999977  -4.11999989  56.24000168
H     9.80000019  -4.67000008  56.93000031
H     7.42999983  -4.81999969  56.25000000
H     8.47999954  -2.96000004  52.45999908
H    16.54000092  -1.79000008  52.47000122
H     6.17999983  -5.23000002  53.81999969
H     5.56999969  -3.91000009  54.66999817
S    17.45000076  -3.50000000  56.88000107
C    20.10999870  -2.72000027  56.18999863
C    18.77000046  -2.79000020  55.93000031
C    18.30999947  -2.25000000  54.68000031
C    19.12999916  -1.58000004  53.79000092
C    20.52999878  -1.62000000  54.02999878
C    21.47000122  -1.15999997  53.06000137
C    22.80999947  -1.21000004  53.33000183
C    23.29999924  -1.87000012  54.48999786
C    22.43000031  -2.42000008  55.40999985
C    21.02999878  -2.23000002  55.22999573
C    16.90999985  -2.56000018  54.45000076
C    16.28999901  -3.12999988  55.59000015
C    14.96000099  -3.53999996  55.61999893
C    24.79000092  -1.99000001  54.68000031
H    25.10253143  -2.00420594  55.72413635
H    20.42000008  -3.19999981  57.11999893
H    18.68999863  -1.29999995  52.84000015
H    21.12999916  -0.75999999  52.11000061
H    23.54999924  -0.74000001  52.69000244
H    22.75000000  -3.00000000  56.26999664
H    14.63999939  -4.23000002  56.38999939
H    25.13999939  -1.10000002  54.13999939
H    25.13000107  -2.94000006  54.23999786
