96

S    17.61999893   2.09000015  59.79000092
C    20.28000069   2.34999990  59.03999710
C    19.03000069   1.85000002  58.74000168
C    18.78999901   1.25999999  57.45999908
C    19.85000038   0.97999996  56.60999680
C    21.15999985   1.42000008  56.93000031
C    22.26000023   1.22000003  56.05999756
C    23.50000000   1.74000001  56.33999634
C    23.74000168   2.48000002  57.52999878
C    22.67000008   2.66999984  58.39000320
C    21.37000084   2.16000009  58.15000153
C    17.35000038   1.10000002  57.29999924
C    16.61999893   1.47000003  58.46000290
C    15.24000072   1.58999991  58.40999985
C    25.10000038   3.07000017  57.80000305
H    25.56856728   2.38844728  58.50995255
H    20.31999969   2.98000002  59.93000031
H    19.68000031   0.34999999  55.75000000
H    21.94999886   0.87000000  55.06999969
H    24.28999901   1.50000000  55.63999939
H    22.90999985   3.31999993  59.22999954
H    14.75000000   1.85000002  59.34999847
H    25.59999847   3.21000004  56.84000015
H    25.00999832   4.07999992  58.23999786
S    14.27999973   0.09000000  54.88999939
C    11.50000000   0.17999999  55.40000153
C    12.79000092   0.46999997  55.79000092
C    13.07999992   1.12000000  57.02999878
C    12.07999992   1.22000003  57.97999954
C    10.75000000   0.85000002  57.69000244
C     9.72999954   0.94999999  58.68000031
C     8.47999954   0.50000000  58.31999969
C     8.22000027  -0.12000000  57.06999969
C     9.21000004  -0.27000001  56.11999893
C    10.48999977   0.27000001  56.38999939
C    14.51000023   1.34000003  57.23999786
C    15.26999950   0.86000001  56.14999771
C    16.63999939   0.64000005  56.18000031
C     6.84999990  -0.57999998  56.65000153
H     6.27388763   0.13836211  56.06677628
H    11.28999901  -0.14999999  54.38999939
H    12.32999992   1.57000005  58.97999573
H     9.96999931   1.41000009  59.62999725
H     7.65999985   0.55000001  59.02999878
H     8.98999977  -0.67000002  55.13000107
H    17.10000038   0.31000000  55.26000214
H     6.25999975  -0.71999997  57.56999969
H     6.94000006  -1.48000002  56.04000092
S    18.06999969   2.59000015  54.10999680
C    20.76000023   2.63999987  53.53000259
C    19.51000023   2.17999983  53.15999985
C    19.14999962   1.64000010  51.88999939
C    20.17000008   1.56000006  50.96000290
C    21.51000023   1.92000008  51.25999832
C    22.55000114   1.82999992  50.30000305
C    23.78999901   2.36000013  50.59000015
C    24.04999924   2.84999990  51.90000153
C    23.08000183   2.96000004  52.87000275
C    21.78999901   2.45000005  52.56999969
C    17.71999931   1.69000006  51.63999939
C    16.98999977   2.11999989  52.77999878
C    15.59999943   2.13000011  52.76000214
C    25.46999931   3.31999993  52.11999893
H    25.91606712   2.67567778  52.87760925
H    20.93000031   3.23000002  54.41999817
H    19.86999893   1.15999997  49.99000168
H    22.26000023   1.66999996  49.27000046
H    24.54999924   2.26999998  49.82999802
H    23.23999786   3.53999996  53.76999664
H    14.96000099   2.33999991  53.61000061
H    25.96999931   3.19000006  51.14999771
H    25.59000015   4.36999989  52.41000366
S    14.53999996   1.03999996  49.08000183
C    11.87999916   1.03999996  49.68999863
C    13.15000057   1.34000003  50.13999939
C    13.48000050   1.75999999  51.45999908
C    12.43999958   1.94000006  52.35000229
C    11.11999989   1.65000010  51.93999863
C    10.13000011   1.65000010  52.95999908
C     8.85000038   1.24000001  52.63999939
C     8.52000046   0.69000000  51.37000275
C     9.46000004   0.79999995  50.37000275
C    10.81999969   1.14999998  50.61999893
C    14.93000031   1.82999992  51.56999969
C    15.65000057   1.44999993  50.40999985
C    17.04000092   1.39999998  50.45000076
C     7.09999990   0.28999999  51.10000229
H     6.69551706   0.87898338  50.27684402
H    11.64000034   0.56999999  48.74000168
H    12.61999989   2.25999999  53.37999725
H    10.31000042   2.00999999  53.96999741
H     8.10000038   1.22000003  53.43000031
H     9.22000027   0.57999998  49.33000183
H    17.60000038   1.14999998  49.54999924
H     6.48000002   0.45000002  51.98999786
H     6.91999960  -0.75000000  50.79000092
