96

S    16.57999992   1.08999991  59.55999756
C    19.20999908   1.56000006  58.75999832
C    17.97999954   0.99000001  58.47999954
C    17.63000107   0.39000002  57.22999954
C    18.64999962   0.39000002  56.29000092
C    19.96000099   0.83999997  56.56000137
C    21.00000000   0.81000000  55.58000183
C    22.23999977   1.30999994  55.90000153
C    22.56000137   1.79000008  57.19999695
C    21.55999947   1.85000002  58.15000153
C    20.29000092   1.28000009  57.88999939
C    16.18999863   0.20999999  57.06999969
C    15.53999996   0.35999998  58.31999969
C    14.14999962   0.46000001  58.36999893
C    23.95000076   2.27999997  57.51999664
H    24.32750702   1.81701851  58.43171692
H    19.25000000   2.13000011  59.68999863
H    18.39999962  -0.05000000  55.33000183
H    20.73999786   0.41000003  54.59999847
H    23.00000000   1.34000003  55.13000107
H    21.68999863   2.38000011  59.09000015
H    13.71999931   0.93000001  59.25000000
H    24.54999924   1.93000007  56.66999817
H    24.01000023   3.38000011  57.50999832
S    12.89999962  -0.22000000  54.72999954
C    10.19000053  -0.20999999  55.44000244
C    11.50000000  -0.01000000  55.79999924
C    11.90000057   0.28999999  57.14000320
C    10.90999985   0.52999997  58.08000183
C     9.55000019   0.29999998  57.77000046
C     8.52000046   0.43000001  58.75000000
C     7.20000029   0.14000000  58.47999954
C     6.88000011  -0.41999999  57.21000290
C     7.82999992  -0.46999997  56.22000122
C     9.19000053  -0.12000000  56.45000076
C    13.35000038   0.19999999  57.25000000
C    14.06999969   0.02000000  56.04999924
C    15.44000053   0.14000000  55.89000320
C     5.47999954  -0.78000003  56.77000046
H     5.12457943  -0.04783380  56.04494095
H    10.03999901  -0.56999999  54.43000031
H    11.18999958   0.82999998  59.09000015
H     8.84000015   0.75999999  59.72999954
H     6.38999987   0.28000000  59.19000244
H     7.48000050  -0.63000000  55.20000076
H    16.03000069   0.05000000  54.98000336
H     4.76000023  -0.79999995  57.58999634
H     5.55999994  -1.80999994  56.38000107
S    13.47000027  -2.24000001  51.88000107
C    10.85999966  -2.73000002  52.64999771
C    12.20000076  -2.92000008  52.91999817
C    12.71000004  -3.63999987  54.03999710
C    11.73999977  -4.13999987  54.87999725
C    10.34999943  -3.89999986  54.75000000
C     9.32999992  -4.30000019  55.65999985
C     8.00000000  -4.09000015  55.38999939
C     7.59999990  -3.42999983  54.20000076
C     8.51000023  -3.07999992  53.22999954
C     9.89000034  -3.28000021  53.53000259
C    14.13000011  -3.32999992  54.15000153
C    14.72000027  -2.59000015  53.09000015
C    16.03999901  -2.16000009  53.08000183
C     6.15999985  -3.16000009  53.81999969
H     5.79086447  -3.63561702  52.91135788
H    10.67000008  -2.15000010  51.76000214
H    12.02999973  -4.61999989  55.80999756
H     9.71000004  -4.75000000  56.56999969
H     7.17999983  -4.40000010  56.04000092
H     8.14000034  -2.45000005  52.43000031
H    16.34000015  -1.44999993  52.30999756
H     5.50000000  -3.33999991  54.66999817
H     6.07999992  -2.07999992  53.67000198
S    17.35000038  -3.73000002  56.52000046
C    19.96000099  -3.23000002  56.02000427
C    18.68000031  -3.08999991  55.54000092
C    18.30000114  -2.43000007  54.33000183
C    19.31999969  -1.84000003  53.60000229
C    20.66999817  -1.98000002  54.00000000
C    21.73999977  -1.62000000  53.13000107
C    23.03999901  -1.88999999  53.48999786
C    23.35000038  -2.38000011  54.78000259
C    22.32999992  -2.73000002  55.63999939
C    20.96999931  -2.54999995  55.28999710
C    16.86000061  -2.56999993  54.13000107
C    16.23999977  -3.21000004  55.22999573
C    14.91000080  -3.61000013  55.27999878
C    24.77999878  -2.82999992  55.01999664
H    25.24392319  -2.38035059  55.89788437
H    20.13000107  -3.75999975  56.95999908
H    19.12999916  -1.28000009  52.69000244
H    21.45999908  -1.29999995  52.12999725
H    23.88000107  -1.75000000  52.81999969
H    22.53000069  -3.40999985  56.45999908
H    14.45000076  -4.01999998  56.17000198
H    25.30999947  -2.64999986  54.08000183
H    24.69000053  -3.91999984  55.06999969
