96

S    17.28000069   2.04999995  59.65000153
C    19.97999954   2.17999983  58.95999908
C    18.70000076   1.81999993  58.60000229
C    18.36000061   1.41000009  57.27000427
C    19.37999916   1.28000009  56.35000229
C    20.72000122   1.53999996  56.72000122
C    21.80000114   1.49000001  55.79000092
C    23.11000061   1.72000003  56.14999771
C    23.45999908   2.09000015  57.48000336
C    22.39999962   2.31999993  58.31999969
C    21.04000092   2.00000000  58.04000092
C    16.92000008   1.35000002  57.11000061
C    16.21000099   1.71000004  58.27999878
C    14.81999969   1.87000012  58.27000046
C    24.86999893   2.50000000  57.84000015
H    25.27753448   2.15681243  58.79091263
H    20.06999969   2.75999999  59.87999725
H    19.22000122   0.90999997  55.34000015
H    21.56999969   1.28000009  54.75000000
H    23.88999939   1.84000003  55.40999985
H    22.59000015   2.73000002  59.31000137
H    14.28999996   2.00999999  59.20999908
H    25.55000114   2.17999983  57.02999878
H    24.77000046   3.60000014  57.80000305
S    13.81000042   0.87000000  54.58000183
C    11.05000019   0.50000000  55.31000137
C    12.31999969   1.00000000  55.52999878
C    12.69000053   1.50999999  56.81999969
C    11.68000031   1.65000010  57.76000214
C    10.32999992   1.29999995  57.51999664
C     9.35999966   1.28999996  58.55999756
C     8.10999966   0.75999999  58.33000183
C     7.79999971   0.14999999  57.09000015
C     8.76000023   0.01000000  56.11000061
C    10.01999950   0.64999998  56.26999664
C    14.11000061   1.58999991  57.09000015
C    14.86999989   1.13999999  55.97999954
C    16.25000000   1.07000005  55.90999985
C     6.43000031  -0.34000003  56.70000076
H     5.98812103   0.26580113  55.90889359
H    10.90000057  -0.11000000  54.41999817
H    11.85999966   1.80000007  58.81999969
H     9.59999943   1.86000001  59.45000076
H     7.39000034   0.82000005  59.13999939
H     8.48999977  -0.45000002  55.15999603
H    16.75000000   0.68000007  55.01999664
H     5.73999977  -0.28999999  57.56000137
H     6.42000008  -1.39999998  56.40999603
S    18.15000153   2.71000004  53.34000015
C    20.88999939   2.92000008  52.70000076
C    19.63000107   2.43000007  52.41000366
C    19.27999878   1.84000003  51.14999771
C    20.31999969   1.63000000  50.27000046
C    21.64999962   2.04999995  50.54000092
C    22.76000023   1.88999999  49.66999817
C    24.04000092   2.27999997  49.99000168
C    24.28999901   2.89000010  51.25000000
C    23.26000023   3.15000010  52.12999725
C    21.94999886   2.68000007  51.79999924
C    17.85000038   1.67999995  50.91999817
C    17.10000038   2.11999989  52.04000092
C    15.72000027   2.29999995  52.04999924
C    25.69000053   3.37000012  51.52999878
H    26.04506493   2.85870457  52.42476273
H    21.05999947   3.45999980  53.62999725
H    20.10000038   1.35000002  49.25000000
H    22.69000053   1.22000003  48.81999969
H    24.77999878   2.06999993  49.22000122
H    23.45000076   3.65000010  53.06999969
H    15.17000008   2.79999995  52.84000015
H    26.40000153   3.25000000  50.70000076
H    25.65000153   4.44000006  51.77000046
S    14.65999985   0.82000005  48.50999832
C    11.94000053   0.68000007  49.20999908
C    13.23999977   0.97999996  49.55999756
C    13.60999966   1.66999996  50.77000046
C    12.56999969   1.94000006  51.63000107
C    11.23999977   1.52999997  51.39999771
C    10.17000008   1.80000007  52.29999924
C     8.89000034   1.35000002  52.06999969
C     8.52999973   0.94999999  50.75000000
C     9.53999996   0.59000003  49.88999939
C    10.90999985   0.90000004  50.14999771
C    15.05000019   1.87000012  50.90000153
C    15.76000023   1.48000002  49.72999954
C    17.13999939   1.34000003  49.75999832
C     7.11000013   0.56000000  50.45000076
H     6.58637714   1.21806657  49.75655365
H    11.77999973   0.13000000  48.29000092
H    12.71000004   2.59999990  52.48000336
H    10.43000031   2.42000008  53.15000153
H     8.10000038   1.49000001  52.80000305
H     9.32999992  -0.16000001  49.13000107
H    17.72999954   0.93000001  48.94000244
H     6.44000006   0.67000002  51.31000137
H     7.04999971  -0.46999997  50.07999802
