96

S    17.36999893   1.29999995  60.26000214
C    19.93000031   1.76999998  59.45000076
C    18.71000099   1.22000003  59.10999680
C    18.34000015   0.71999997  57.81000137
C    19.29999924   0.90000004  56.83000183
C    20.62000084   1.25999999  57.16999817
C    21.68999863   1.18000007  56.22000122
C    22.96999931   1.46000004  56.60999680
C    23.32999992   2.00999999  57.87000275
C    22.29999924   2.14000010  58.76999664
C    20.96999931   1.71000004  58.48999786
C    16.90999985   0.46999997  57.71999741
C    16.28000069   0.76999998  58.95000076
C    14.89999962   0.93000001  59.02000046
C    24.77000046   2.37000012  58.15000153
H    25.24589920   1.75914335  58.91712189
H    20.02000046   2.33999991  60.37000275
H    19.05999947   0.56000000  55.81999969
H    21.40999985   0.78000003  55.25000000
H    23.78999901   1.07000005  56.00999832
H    22.50000000   2.48000002  59.78000259
H    14.60000038   1.43000007  59.93000031
H    25.36999893   2.36000013  57.22999954
H    24.71999931   3.42999983  58.44999695
S    13.59000015   0.09999999  55.34000015
C    10.95999908  -0.19999999  56.19999695
C    12.23999977   0.22000000  56.47999573
C    12.64999962   0.57999998  57.81000137
C    11.67000008   0.67000002  58.79000092
C    10.31999969   0.34999999  58.50999832
C     9.23999977   0.41999999  59.43999863
C     7.99000025   0.09999999  58.97999573
C     7.63000011  -0.38000000  57.69000244
C     8.65999985  -0.56000000  56.79999924
C     9.96000004  -0.13000000  57.21000290
C    14.09999943   0.67000002  57.90000153
C    14.73000050   0.41999999  56.65999985
C    16.11999893   0.32000002  56.58000183
C     6.21999979  -0.79999995  57.31999969
H     5.77814960  -0.15860409  56.55745316
H    10.67999935  -0.46999997  55.19000244
H    11.92999935   1.00000000  59.79000092
H     9.39000034   0.85000002  60.43000031
H     7.14999962   0.17999999  59.65000153
H     8.38999939  -1.11000001  55.90999985
H    16.48999977   0.43000001  55.56000137
H     5.51000023  -0.97999996  58.13000107
H     6.38000011  -1.80000007  56.88999939
S    17.85000038   1.92000008  53.69999695
C    20.52999878   2.16000009  52.90999985
C    19.26000023   1.72000003  52.63999939
C    18.88000107   1.36000013  51.30000305
C    19.92000008   1.15999997  50.40999985
C    21.25000000   1.61000001  50.61999893
C    22.29999924   1.65000010  49.65999985
C    23.54999924   2.10999990  49.99000168
C    23.85999870   2.66000009  51.25999832
C    22.81999969   2.75000000  52.15000153
C    21.53000069   2.19000006  51.90999985
C    17.43999863   1.41000009  51.12999725
C    16.75000000   1.75999999  52.31999969
C    15.36999893   1.87999988  52.44999695
C    25.28000069   2.96999979  51.68000031
H    25.61318398   2.34616804  52.50941086
H    20.76999855   2.75000000  53.80000305
H    19.82999992   0.64000005  49.45999908
H    22.01000023   1.26999998  48.68000031
H    24.30999947   1.87999988  49.25000000
H    23.01000214   3.15000010  53.13999939
H    14.98000050   2.00000000  53.46000290
H    25.95000076   2.79000020  50.83000183
H    25.23999977   4.00000000  52.04999924
S    14.09000015   0.82999998  48.88000107
C    11.42000008   0.78000003  49.59999847
C    12.71999931   1.02999997  49.98000336
C    13.15000057   1.48000002  51.26999664
C    12.13999939   1.50000000  52.22000122
C    10.78999996   1.22000003  51.90000153
C     9.75000000   1.25999999  52.87000275
C     8.43000031   1.08999991  52.50000000
C     8.06999969   0.55000001  51.24000168
C     9.03999996   0.46999997  50.27000046
C    10.39000034   0.79999995  50.58000183
C    14.60000038   1.62000000  51.31000137
C    15.27999973   1.22000003  50.13999939
C    16.65999985   1.08999991  50.00999832
C     6.61999989   0.32999998  50.87999725
H     6.16468334   1.23351860  50.47448349
H    11.28000069   0.38000000  48.60000229
H    12.41000080   1.80999994  53.22999954
H    10.01999950   1.51999998  53.88999939
H     7.69999981   1.38000000  53.25000000
H     8.75000000   0.19000000  49.26000214
H    17.13999939   0.79999995  49.08000183
H     6.11999989   0.00000000  51.79999924
H     6.61000013  -0.50000000  50.15999603
