96

S    17.31999969   1.69000006  60.05000305
C    19.93000031   2.11999989  59.27000046
C    18.71000099   1.58000004  58.94000244
C    18.38999939   1.00999999  57.67000198
C    19.40000153   0.88000000  56.73999786
C    20.65000153   1.50000000  56.98999786
C    21.65999985   1.49000001  55.98999786
C    22.90999985   1.97000003  56.29000092
C    23.18000031   2.56000018  57.55000305
C    22.20999908   2.68000007  58.53000259
C    20.93000031   2.11999989  58.26000214
C    16.94000053   0.94999999  57.50999832
C    16.25000000   1.19999993  58.73000336
C    14.86999989   1.04999995  58.85000229
C    24.63000107   2.82999992  57.85999680
H    24.92872620   2.48148823  58.84863281
H    19.97999954   2.73000002  60.17000198
H    19.22999954   0.76999998  55.66999817
H    21.44000053   1.03999996  55.02999878
H    23.69999886   1.80000007  55.56000137
H    22.42000198   3.07999992  59.51000214
H    14.35999966   1.26999998  59.78000259
H    25.19000053   2.24000001  57.11999893
H    24.99000168   3.84999990  57.67000198
S    13.73000050   0.12000000  55.15999603
C    11.06999969  -0.24000001  55.90999985
C    12.35000038   0.12000000  56.26999664
C    12.71999931   0.67000002  57.54000092
C    11.72999954   0.87000000  58.48999786
C    10.40999985   0.46999997  58.16999817
C     9.34000015   0.57999998  59.10999680
C     8.05999947   0.19000000  58.81999969
C     7.69999981  -0.34000003  57.55000305
C     8.71999931  -0.46000001  56.63000107
C    10.06999969  -0.12000000  56.90999985
C    14.17000008   0.76999998  57.67000198
C    14.85999966   0.59999996  56.44000244
C    16.23999977   0.71000004  56.32999802
C     6.24000025  -0.51999998  57.21000290
H     5.94716978   0.11565578  56.37436295
H    10.90999985  -0.71000004  54.93999863
H    11.96000004   1.28999996  59.47000122
H     9.56999969   1.07000005  60.05000305
H     7.28999996   0.35999998  59.56999969
H     8.42000008  -0.67000002  55.59999847
H    16.76000023   0.57999998  55.38000107
H     5.65999985  -0.27000001  58.11000061
H     5.98000002  -1.58999991  57.15000153
S    18.17000008   2.44000006  53.92000198
C    20.76000023   3.02999997  53.09999847
C    19.52999878   2.51999998  52.77999878
C    19.18000031   2.09000015  51.45999908
C    20.20000076   1.89999998  50.54000092
C    21.54000092   2.22000003  50.86999893
C    22.57999802   2.17999983  49.88999939
C    23.84000015   2.61999989  50.21999741
C    24.11000061   3.25000000  51.46999741
C    23.08000183   3.38000011  52.36999893
C    21.77000046   2.89000010  52.11000061
C    17.76000023   1.75999999  51.38000107
C    17.06999969   2.00000000  52.58999634
C    15.67999935   1.99000001  52.65999603
C    25.50000000   3.65000010  51.91999817
H    25.89939690   3.04377174  52.73305893
H    20.97999954   3.61000013  54.00000000
H    19.89999962   1.53999996  49.55999756
H    22.32999992   1.70000005  48.95000076
H    24.54000092   2.57999992  49.40000153
H    23.19000053   3.88999987  53.33000183
H    15.14999962   2.22000003  53.56999969
H    26.17000198   3.67000008  51.04999924
H    25.36000061   4.67999983  52.25000000
S    14.52999973   0.96000004  48.99000168
C    11.80999947   0.71000004  49.66999817
C    13.09000015   1.05999994  50.01999664
C    13.48000050   1.47000003  51.33999634
C    12.48999977   1.48000002  52.29999924
C    11.13999939   1.23000002  51.93999863
C    10.13000011   1.35000002  52.93000031
C     8.80000019   1.18000007  52.63000107
C     8.47000027   0.56000000  51.39999771
C     9.43000031   0.34999999  50.43000031
C    10.76000023   0.81000000  50.61999893
C    14.91000080   1.66999996  51.52999878
C    15.60999966   1.36999989  50.34000015
C    17.00000000   1.29999995  50.30000305
C     7.05999947   0.07000000  51.11000061
H     6.50437355   0.76097125  50.47601318
H    11.56999969   0.32999998  48.68000031
H    12.68000031   1.92000008  53.27999878
H    10.31999969   1.65000010  53.95999908
H     8.02999973   1.38999999  53.36000061
H     9.19000053  -0.22000000  49.54000092
H    17.46000099   0.88999999  49.40999985
H     6.51999998   0.09000000  52.05999756
H     7.07999992  -0.96000004  50.72999954
