96

S    17.30999947   1.69000006  60.04000092
C    20.06999969   1.94000006  59.52000046
C    18.79999924   1.63000000  59.09000015
C    18.45999908   1.26999998  57.74000168
C    19.52999878   1.13000000  56.86999893
C    20.84000015   1.47000003  57.27000427
C    21.93000031   1.16999996  56.39999771
C    23.21000099   1.34000003  56.86000061
C    23.52999878   1.82999992  58.15999985
C    22.50000000   2.09999990  59.02999878
C    21.15999985   1.86000001  58.61000061
C    17.04000092   1.04999995  57.51999664
C    16.25000000   1.39999998  58.63999939
C    14.86999989   1.51999998  58.68999863
C    24.96999931   2.17999983  58.47999954
H    25.42695427   1.47314954  59.17256927
H    20.22999954   2.25999999  60.54000092
H    19.34000015   0.85000002  55.84000015
H    21.73999977   0.64999998  55.45999908
H    24.10000038   1.10000002  56.27999878
H    22.59000015   2.59000015  59.99000168
H    14.29999924   1.62000000  59.61000061
H    25.59000015   2.13000011  57.56999969
H    25.03000069   3.23000002  58.81000137
S    13.88000011   0.24000001  55.06999969
C    11.17000008   0.03000000  55.61000061
C    12.42000008   0.41000003  56.05999756
C    12.76000023   0.82000005  57.38999939
C    11.72999954   1.18000007  58.25000000
C    10.40999985   0.90000004  57.84000015
C     9.34000015   1.05999994  58.75999832
C     8.01000023   0.82999998  58.47000122
C     7.76999998   0.22000000  57.21000290
C     8.78000069   0.04000000  56.29000092
C    10.14999962   0.29999998  56.56000137
C    14.18000031   1.08999991  57.55000305
C    14.93999958   0.63000000  56.44000244
C    16.32999992   0.69000000  56.37000275
C     6.32999992  -0.08000001  56.88000107
H     5.96093512   0.35294107  55.95024109
H    10.85000038  -0.41000003  54.66999817
H    11.97000027   1.67999995  59.19000244
H     9.48999977   1.52999997  59.72999954
H     7.22000027   0.93000001  59.20999908
H     8.50000000  -0.34999999  55.31999969
H    16.80999947   0.35999998  55.45999908
H     5.75000000   0.28000000  57.74000168
H     6.19999981  -1.16999996  56.86000061
S    18.02999878   2.23000002  53.90999603
C    20.72999954   2.45000005  53.33000183
C    19.45999908   2.19000006  52.87000275
C    19.14999962   1.93000007  51.49000168
C    20.15999985   1.80999994  50.56000137
C    21.48999977   2.11999989  50.96000290
C    22.63999939   1.98000002  50.12000275
C    23.88999939   2.26999998  50.61000061
C    24.11999893   2.70000005  51.93999863
C    23.03999901   2.79000020  52.78999710
C    21.73999977   2.42000008  52.34000397
C    17.71999931   1.72999990  51.33999634
C    16.97000122   1.84000003  52.54000092
C    15.57999992   1.77999997  52.57999802
C    25.55000114   3.08999991  52.25999832
H    25.93415642   2.57779169  53.14213562
H    20.89999962   2.96999979  54.27000046
H    19.93000031   1.58000004  49.52999878
H    22.53999901   1.87000012  49.05000305
H    24.71999931   2.42000008  49.93000031
H    23.12999916   3.24000001  53.77999878
H    15.06000042   1.87000012  53.52000427
H    26.12999916   2.89999986  51.35000229
H    25.61000061   4.17000008  52.42000198
S    14.56999969   1.05999994  48.81000137
C    11.92000008   0.50999999  49.48999786
C    13.14000034   1.01999998  49.86000061
C    13.42000008   1.50999999  51.18000031
C    12.36999989   1.51999998  52.08000183
C    11.05999947   1.16999996  51.70000076
C     9.94000053   1.39999998  52.55000305
C     8.65999985   1.00000000  52.23999786
C     8.43999958   0.55000001  50.90999985
C     9.48000050   0.32000002  50.04000092
C    10.81999969   0.68000007  50.37000275
C    14.85999966   1.64000010  51.38999939
C    15.60999966   1.42000008  50.20999908
C    17.00000000   1.42000008  50.18000031
C     7.05999947   0.11000000  50.47999954
H     6.60838127   0.74508846  49.71789551
H    11.73999977   0.11000000  48.48999786
H    12.60000038   1.72000003  53.13000107
H    10.17000008   1.50999999  53.60000229
H     7.86000013   1.04999995  52.97999954
H     9.26000023  -0.06000000  49.05000305
H    17.53999901   1.43999994  49.23999786
H     6.43000031   0.14000000  51.38000107
H     7.09000015  -0.93000001  50.13999939
