96

S    17.32999992   2.34999990  59.54000092
C    20.07999802   2.30999994  58.88000107
C    18.78000069   1.97000003  58.57999802
C    18.42000008   1.31999993  57.36000061
C    19.42000008   0.99000001  56.45999908
C    20.79000092   1.25999999  56.72000122
C    21.84999847   0.90999997  55.83000183
C    23.12999916   1.19999993  56.24000168
C    23.40999985   1.92000008  57.43000031
C    22.42000198   2.24000001  58.33000183
C    21.09000015   1.90999997  57.95999908
C    16.98999977   1.26999998  57.08000183
C    16.31000137   1.84000003  58.18999863
C    14.92000008   1.87000012  58.25000000
C    24.80999947   2.43000007  57.70999908
H    25.21530914   1.94647408  58.59883499
H    20.52999878   2.70000005  59.78000259
H    19.11999893   0.41000003  55.59999847
H    21.61000061   0.56999999  54.82999802
H    23.98999977   1.00000000  55.61000061
H    22.63000107   2.84999990  59.20999908
H    14.39000034   2.29999995  59.09999847
H    25.43999863   2.13000011  56.86999893
H    24.77999878   3.51999998  57.69000244
S    13.85000038   0.32000002  54.69999695
C    11.13000011   0.54000002  55.31999969
C    12.42000008   0.92000002  55.58000183
C    12.76999950   1.42000008  56.88000107
C    11.80999947   1.67999995  57.83000183
C    10.46000004   1.33000004  57.56999969
C     9.47000027   1.46000004  58.59000397
C     8.18000031   1.03999996  58.34000015
C     7.85000038   0.28999999  57.18000031
C     8.84000015   0.09000000  56.25000000
C    10.14999962   0.64000005  56.35000229
C    14.21000004   1.47000003  57.11000061
C    14.89999962   0.90000004  56.00999832
C    16.28000069   0.82999998  55.96000290
C     6.44000006  -0.17999999  56.90999985
H     5.99754381   0.29100174  56.03222275
H    10.98999977  -0.03000000  54.40999985
H    12.07999992   1.86000001  58.86000061
H     9.72999954   1.92000008  59.54000092
H     7.37999964   1.36000013  59.00000000
H     8.59000015  -0.44000000  55.33000183
H    16.77000046   0.38000000  55.10000229
H     5.98000002   0.07000000  57.87000275
H     6.48000002  -1.28000009  56.84000015
S    14.63999939  -1.97000003  52.00000000
C    11.97000027  -2.10999990  52.72999573
C    13.25000000  -2.56000018  52.94000244
C    13.66000080  -3.14000010  54.18000031
C    12.69999981  -3.52999973  55.10000229
C    11.32999992  -3.31999993  54.81999969
C    10.25000000  -3.78999996  55.61000061
C     8.93000031  -3.52999973  55.31000137
C     8.60999966  -2.80999994  54.13000107
C     9.61999989  -2.25000000  53.37999725
C    10.98000050  -2.59999990  53.61999893
C    15.10000038  -3.05999994  54.36999893
C    15.76000023  -2.39999986  53.29999924
C    17.13000107  -2.16000009  53.29000092
C     7.17999983  -2.36000013  53.90999603
H     6.83780432  -2.70219588  52.93331528
H    11.65999985  -1.36000013  52.00000000
H    13.00000000  -3.96000004  56.04999924
H    10.57000065  -4.41000032  56.45000076
H     8.10999966  -3.76999998  55.97000122
H     9.38000011  -1.59999990  52.54000092
H    17.63000107  -1.70000005  52.43999863
H     6.57999992  -2.75999999  54.73999786
H     7.20000029  -1.25999999  53.94000244
S    18.22000122  -3.37000012  56.90999985
C    20.96999931  -2.96000004  56.29000092
C    19.63000107  -2.86000013  55.97000122
C    19.29000092  -2.36000013  54.66999817
C    20.20999908  -1.92000008  53.73000336
C    21.57999992  -2.03999996  54.06000137
C    22.59000015  -1.64000010  53.13999939
C    23.90999985  -1.54999995  53.52000427
C    24.28999901  -2.02999997  54.79999924
C    23.35000038  -2.57999992  55.63000107
C    21.94999886  -2.56999993  55.34999847
C    17.86999893  -2.57999992  54.38999939
C    17.19000053  -3.17999983  55.47999954
C    15.82999992  -3.47000003  55.48999786
C    25.75000000  -2.21000004  55.14999771
H    25.97700691  -1.84111595  56.15024567
H    21.30000114  -3.44000006  57.19999695
H    19.98999977  -1.42000008  52.80000305
H    22.32999992  -1.19000006  52.18999863
H    24.63999939  -1.19999993  52.80000305
H    23.68000031  -3.07000017  56.55000305
H    15.27999973  -3.88000011  56.32999802
H    26.40999985  -1.85000002  54.34999847
H    25.86999893  -3.30000019  55.18000031
