96

S    16.93000031   1.50999999  59.82999802
C    19.62000084   1.57000005  59.15999985
C    18.35000038   1.14999998  58.83999634
C    17.95999908   0.50999999  57.61000061
C    18.98999977   0.20999999  56.72999954
C    20.31999969   0.61000001  57.00000000
C    21.42000008   0.20999999  56.18999863
C    22.70999908   0.54000002  56.52999878
C    22.98000145   1.25999999  57.71999741
C    21.97999954   1.66999996  58.56999969
C    20.65000153   1.28999996  58.22999954
C    16.52000046   0.45000002  57.43000031
C    15.81999969   0.97999996  58.54999924
C    14.44000053   1.00999999  58.66000366
C    24.37000084   1.72000003  58.09999847
H    24.84661674   1.12956262  58.88250732
H    19.86999893   2.00000000  60.13000107
H    18.81999969  -0.39999998  55.84999847
H    21.17000198  -0.16000001  55.20000076
H    23.50000000   0.31000000  55.83000183
H    22.22999954   2.20000005  59.47999954
H    14.00000000   1.28999996  59.61000061
H    25.03000069   1.82999992  57.22999954
H    24.27000046   2.75000000  58.47000122
S    13.34000015  -0.34000003  55.06999969
C    10.62000084  -0.09000000  55.59999847
C    11.90999985   0.16000001  55.98999786
C    12.22000027   0.68000007  57.29000092
C    11.16000080   0.92000002  58.15000153
C     9.81000042   0.67000002  57.81000137
C     8.75000000   0.85000002  58.74000168
C     7.46999979   0.51999998  58.39000320
C     7.26999998   0.03000000  57.05999756
C     8.23000050  -0.14999999  56.09000397
C     9.53999996   0.25999999  56.45999908
C    13.64999962   0.63000000  57.56999969
C    14.35999966   0.09000000  56.45999908
C    15.72999954  -0.12000000  56.43000031
C     5.93999958  -0.59000003  56.72000122
H     5.44907093   0.05034202  55.98716354
H    10.22999954  -0.81000000  54.87999725
H    11.36999989   1.19999993  59.18000031
H     9.00000000   1.16999996  59.75000000
H     6.74000025   0.45000002  59.19000244
H     7.92999983  -0.57999998  55.13999939
H    16.21999931  -0.55000001  55.56000137
H     5.32000017  -0.51999998  57.63000107
H     6.06999969  -1.62000000  56.38000107
S    17.79999924   1.53999996  53.66000366
C    20.48999977   1.66999996  52.90999985
C    19.19000053   1.36999989  52.56999969
C    18.78000069   1.07000005  51.23000336
C    19.72999954   0.99000001  50.22999573
C    21.07999992   1.21000004  50.59999847
C    22.14999962   1.22000003  49.65999985
C    23.45999908   1.52999997  49.97000122
C    23.84000015   1.94000006  51.27999878
C    22.86000061   1.85000002  52.23999786
C    21.50000000   1.57000005  51.91999817
C    17.34000015   1.08999991  51.04000092
C    16.70999908   1.42000008  52.27000427
C    15.34000015   1.61000001  52.35000229
C    25.27000046   2.23000002  51.65999985
H    25.66861343   1.56801677  52.42875671
H    20.69000053   1.75999999  53.97999573
H    19.48999977   0.76999998  49.20000076
H    21.87000084   0.99000001  48.63999939
H    24.15999985   1.53999996  49.15000153
H    23.15999985   1.97000003  53.27999878
H    14.88999939   1.81999993  53.31999969
H    25.89999962   2.09999990  50.76000214
H    25.31999969   3.26999998  52.00000000
S    14.06999969   0.51999998  48.75000000
C    11.36999989   0.27000001  49.54000092
C    12.69000053   0.54000002  49.86000061
C    13.14000034   1.07000005  51.11000061
C    12.18000031   1.21000004  52.09000015
C    10.80000019   1.00999999  51.81000137
C     9.76000023   1.23000002  52.76000214
C     8.43999958   0.94999999  52.50999832
C     8.01000023   0.59000003  51.19999695
C     8.98999977   0.41000003  50.26000214
C    10.38000011   0.48999998  50.54000092
C    14.56999969   1.30999994  51.22000122
C    15.22999954   1.03999996  49.99000168
C    16.61000061   0.88999999  49.86000061
C     6.58999968   0.17000002  50.90000153
H     6.13497496   0.79565942  50.13214493
H    11.17000008  -0.07000000  48.53000259
H    12.39999962   1.58999991  53.08000183
H    10.14000034   1.65000010  53.68999863
H     7.72000027   1.02999997  53.31999969
H     8.73999977  -0.01000000  49.29000092
H    17.05000114   0.63000000  48.90999603
H     6.00000000   0.22000000  51.81999969
H     6.61999989  -0.86000001  50.52000046
