96

S    16.87000084   1.81999993  60.11000061
C    19.51000023   2.36000013  59.34999847
C    18.27999878   1.85000002  59.02999878
C    17.95999908   1.28000009  57.75000000
C    18.97999954   1.08000004  56.84000015
C    20.29000092   1.50000000  57.18999863
C    21.38000107   1.22000003  56.31999969
C    22.62000084   1.70000005  56.63000107
C    22.89999962   2.30999994  57.88000107
C    21.90000153   2.52999997  58.81000137
C    20.59000015   2.11999989  58.44999695
C    16.54000092   1.00000000  57.63000107
C    15.80000019   1.28000009  58.80000305
C    14.40999985   1.36999989  58.86000061
C    24.30999947   2.75999999  58.20999908
H    24.67258453   2.34054136  59.14844894
H    19.60000038   3.12999988  60.11000061
H    18.97999954   0.64000005  55.84999847
H    21.18999863   0.74000001  55.35999680
H    23.43000031   1.58999991  55.91999817
H    22.01000023   3.07000017  59.75000000
H    13.86999989   1.70000005  59.73999786
H    24.99000168   2.44000006  57.41000366
H    24.23999977   3.86000013  58.18999863
S    13.47000027   0.12000000  55.20000076
C    10.78999996   0.05000000  55.70000076
C    12.02999973   0.37000000  56.20999908
C    12.28999996   0.82999998  57.54000092
C    11.19999981   1.08999991  58.34000015
C     9.88000011   0.93000001  57.84999847
C     8.75000000   1.15999997  58.68000031
C     7.57000017   0.51999998  58.37999725
C     7.30000019   0.05000000  57.06999969
C     8.36999989  -0.08000001  56.22000122
C     9.68999958   0.37000000  56.52999878
C    13.73000050   1.02999997  57.69000244
C    14.47999954   0.68000007  56.53999710
C    15.86999989   0.65999997  56.44000244
C     5.91000032  -0.39000002  56.65000153
H     5.45521688   0.40587065  56.06020355
H    10.59000015  -0.50000000  54.79000092
H    11.46999931   1.58000004  59.27000046
H     8.90999985   1.52999997  59.68999863
H     6.89000034   0.41999999  59.22999954
H     8.27000046  -0.69000000  55.33000183
H    16.40999985   0.39000002  55.54000092
H     5.35000038  -0.52999997  57.57999802
H     5.95000029  -1.38999999  56.18999863
S    13.66000080  -1.66999996  52.09000015
C    10.95999908  -2.16000009  52.60000229
C    12.27000046  -2.38999987  52.93000031
C    12.69999981  -3.05999994  54.12000275
C    11.69000053  -3.51000023  54.94999695
C    10.31999969  -3.31999993  54.66999817
C     9.30000019  -3.94000006  55.45000076
C     7.99000025  -3.74000025  55.10000229
C     7.60999966  -2.92000008  54.01000214
C     8.56999969  -2.28999996  53.25000000
C     9.94000053  -2.63999987  53.46000290
C    14.13000011  -2.96000004  54.36000061
C    14.78999996  -2.25000000  53.33000183
C    16.14999962  -1.94000006  53.36000061
C     6.21999979  -3.05000019  53.40999985
H     6.16995287  -3.94369793  52.78798676
H    10.72999954  -1.59999990  51.70000076
H    11.73999977  -4.25000000  55.73999786
H     9.46000004  -4.61000013  56.29000092
H     7.40999985  -4.63000011  55.33000183
H     8.32999992  -1.72000003  52.36000061
H    16.56999969  -1.59999990  52.42000198
H     5.45000029  -3.00000000  54.19000244
H     5.98999977  -2.17999983  52.77999878
S    17.32999992  -3.72000003  56.72999954
C    19.97999954  -3.01999998  56.38999939
C    18.68999863  -2.93000007  55.90999985
C    18.30000114  -2.25999999  54.69999695
C    19.27999878  -1.88999999  53.80000305
C    20.62000084  -1.80000007  54.27000046
C    21.67000008  -1.39999998  53.40000153
C    22.96999931  -1.41000009  53.83999634
C    23.28000069  -1.94999993  55.12000275
C    22.29000092  -2.44000006  55.93999863
C    20.92000008  -2.37000012  55.56000137
C    16.87000084  -2.38000011  54.47999954
C    16.20000076  -3.00999999  55.56000137
C    14.88000011  -3.42000008  55.45000076
C    24.72999954  -2.04999995  55.54000092
H    25.00018120  -1.28922153  56.27233887
H    20.27000046  -3.60000014  57.25999832
H    19.11999893  -1.87000012  52.72999573
H    21.38999939  -0.93000001  52.45999908
H    23.81000137  -1.01999998  53.26000214
H    22.65000153  -2.96999979  56.81999969
H    14.44000053  -4.05999994  56.20999908
H    25.31999969  -1.80000007  54.65999985
H    25.02000046  -3.03999996  55.91999817
