96

S    16.77000046   1.85000002  59.62999725
C    19.47999954   2.06999993  59.06999969
C    18.22999954   1.71000004  58.63999939
C    17.87999916   1.29999995  57.30999756
C    18.90999985   1.18000007  56.38999939
C    20.22999954   1.42000008  56.81000137
C    21.35000038   1.19999993  55.94999695
C    22.63000107   1.57000005  56.31000137
C    22.89999962   2.11999989  57.58999634
C    21.86000061   2.28999996  58.47000122
C    20.52999878   1.94999993  58.11999893
C    16.44000053   1.23000002  57.09999847
C    15.69000053   1.47000003  58.27999878
C    14.29999924   1.54999995  58.23999786
C    24.28999901   2.64999986  57.88999939
H    24.73113441   1.83176684  58.45920563
H    19.55000114   2.34999990  60.12000275
H    18.70000076   0.64000005  55.47000122
H    21.14999962   0.64000005  55.04000092
H    23.46999931   1.51999998  55.63000107
H    22.04000092   2.70000005  59.45999908
H    13.76000023   1.64000010  59.18000031
H    24.75000000   2.86000013  56.91999817
H    24.20999908   3.58999991  58.44999695
S    13.30000019   0.29999998  54.61999893
C    10.62000084  -0.07000000  55.43000031
C    11.85999966   0.48000002  55.65000153
C    12.25999928   0.99000001  56.93000031
C    11.26000023   1.00999999  57.88000107
C     9.90999985   0.63000000  57.68000031
C     8.88000011   0.69999999  58.66000366
C     7.59000015   0.29999998  58.41999817
C     7.25000000  -0.22000000  57.14000320
C     8.21000004  -0.23000000  56.16000366
C     9.57999992   0.09000000  56.38000107
C    13.68999958   1.25000000  57.02000046
C    14.42999935   0.90999997  55.86000061
C    15.81999969   0.88000000  55.90000153
C     5.79999971  -0.55000001  56.84999847
H     5.39431047   0.15461826  56.12403107
H    10.36000061  -0.64999998  54.55999756
H    11.59999943   1.10000002  58.90999603
H     9.18000031   0.96000004  59.66999817
H     6.78999996   0.62000000  59.09000015
H     8.01000023  -0.52999997  55.13999939
H    16.44000053   0.57999998  55.06000137
H     5.28999996  -0.59000003  57.81999969
H     5.60999966  -1.57000005  56.50000000
S    13.78999901  -1.51999998  51.83000183
C    11.14999962  -2.38000011  52.29000092
C    12.46999931  -2.34999990  52.67000198
C    12.97000027  -2.94000006  53.88000107
C    11.98999977  -3.48000002  54.68999863
C    10.60999966  -3.53999996  54.36000061
C     9.63000011  -3.94000006  55.31000137
C     8.28999996  -3.75999975  55.06000137
C     7.85000038  -3.22000003  53.82999802
C     8.78999996  -3.00000000  52.84999847
C    10.19999981  -3.10999990  53.04999924
C    14.34999943  -2.63000011  54.22999954
C    14.93000031  -1.95999992  53.11999893
C    16.28999901  -1.70000005  53.11000061
C     6.42000008  -2.76999998  53.64999771
H     5.83086443  -3.32364535  52.91890717
H    10.80999947  -1.66999996  51.53999710
H    12.27000046  -3.65000010  55.72000122
H     9.96000004  -4.36999989  56.25000000
H     7.50999975  -4.00999975  55.77999878
H     8.55000019  -2.49000001  51.91999817
H    16.70999908  -1.23000002  52.22999954
H     5.97000027  -2.80999994  54.65000153
H     6.43000031  -1.75000000  53.27000046
S    17.70000076  -2.79999995  56.65000153
C    20.36999893  -2.42000008  55.87999725
C    19.04000092  -2.38000011  55.54999924
C    18.55999947  -1.94000006  54.27999878
C    19.44000053  -1.43000007  53.34000015
C    20.82999992  -1.54999995  53.57999802
C    21.78999901  -1.07000005  52.64999771
C    23.09999847  -0.94999999  53.04000092
C    23.59999847  -1.42000008  54.27999878
C    22.67999840  -1.94000006  55.15999603
C    21.28000069  -1.99000001  54.87999725
C    17.11000061  -1.93000007  54.22999954
C    16.51000023  -2.56000018  55.34999847
C    15.15999985  -2.91000009  55.34000015
C    25.05000114  -1.19999993  54.65000153
H    25.31268692  -1.70407546  55.58005905
H    20.62999916  -2.79999995  56.86000061
H    19.11000061  -0.76999998  52.55000305
H    21.45999908  -0.64999998  51.70000076
H    23.77000046  -0.46000001  52.34000397
H    22.88999939  -2.14000010  56.20999908
H    14.67000008  -3.50000000  56.10000229
H    25.22000122  -0.12000000  54.72999954
H    25.69999886  -1.57000005  53.85000229
