96

S    16.75000000   1.67999995  60.05000305
C    19.47000122   1.65000010  59.43000031
C    18.20000076   1.22000003  59.12000275
C    17.92000008   0.61000001  57.85999680
C    18.94000053   0.43000001  56.95000076
C    20.26000023   0.83999997  57.25999832
C    21.28999901   0.88999999  56.26999664
C    22.55000114   1.34000003  56.59999847
C    22.84000015   1.82999992  57.88999939
C    21.84000015   1.94999993  58.82999802
C    20.53999901   1.44999993  58.53000259
C    16.48999977   0.59000003  57.58999634
C    15.76000023   1.00999999  58.73000336
C    14.37999916   1.03999996  58.68999863
C    24.26000214   2.25999999  58.18999863
H    24.81913376   1.50977087  58.74913025
H    19.61000061   2.29999995  60.28999710
H    18.63999939   0.17000002  55.93999863
H    21.04000092   0.44000000  55.31000137
H    23.29999924   1.33000004  55.81999969
H    22.01000023   2.47000003  59.77000427
H    13.85000038   1.43999994  59.55999756
H    24.79000092   2.49000001  57.25999832
H    24.27000046   3.14000010  58.83999634
S    13.30999947  -0.14000000  55.14999771
C    10.57000065  -0.12000000  55.73999786
C    11.85999966   0.14999999  56.12999725
C    12.22000027   0.67000002  57.41000366
C    11.25000000   0.82000005  58.37999725
C     9.90999985   0.46000001  58.09999847
C     8.82000065   0.54000002  59.02000046
C     7.53000021   0.29999998  58.62999725
C     7.20000029   0.03000000  57.27000427
C     8.23999977  -0.00000000  56.36000061
C     9.59999943   0.03000000  56.77000046
C    13.67000008   0.74000001  57.51999664
C    14.46000004   0.38000000  56.38999939
C    15.84000015   0.23000000  56.39999771
C     5.78999996  -0.35999998  56.90000153
H     5.33498430   0.32963309  56.18904114
H    10.31000042  -0.41999999  54.72999954
H    11.46999931   1.15999997  59.38000107
H     8.98999977   0.81000000  60.06000137
H     6.90000010   0.17000002  59.50000000
H     8.13000011  -0.39000002  55.34999847
H    16.50000000  -0.13000000  55.61999893
H     5.18000031  -0.41000003  57.81000137
H     5.88000011  -1.38000000  56.50000000
S    14.21000004  -1.77999997  52.27000427
C    11.54999924  -2.40999985  52.84999847
C    12.89000034  -2.59999990  53.11999893
C    13.34000015  -3.32999992  54.27000046
C    12.43000031  -3.89999986  55.13000107
C    11.05000019  -3.68999982  54.92000198
C    10.03999901  -4.25000000  55.76000214
C     8.71000004  -4.01999998  55.48999786
C     8.31999969  -3.23000002  54.38000107
C     9.23999977  -2.68000007  53.52000427
C    10.62000084  -2.91000009  53.79000092
C    14.75999928  -3.08999991  54.50000000
C    15.39000034  -2.36000013  53.46000290
C    16.75000000  -2.11999989  53.36999893
C     6.84000015  -2.92000008  54.25000000
H     6.41910601  -3.29095745  53.31547546
H    11.14999962  -1.80999994  52.04000092
H    12.74000072  -4.61999989  55.89000320
H    10.26999950  -4.69000006  56.72999954
H     7.96000004  -4.26000023  56.24000168
H     9.03999996  -2.01999998  52.68000031
H    17.17000008  -1.66999996  52.48000336
H     6.30000019  -3.30000019  55.13000107
H     6.78999996  -1.82999992  54.36000061
S    18.09000015  -3.54999995  56.81999969
C    20.78000069  -3.01999998  56.11999893
C    19.43000031  -2.89999986  55.86000061
C    18.96000099  -2.38000011  54.61000061
C    19.84000015  -1.98000002  53.61999893
C    21.21000099  -1.87999988  53.95999908
C    22.19000053  -1.36000013  53.06000137
C    23.52000046  -1.23000002  53.39000320
C    23.95000076  -1.71000004  54.65999985
C    23.06999969  -2.38999987  55.47000122
C    21.68999863  -2.49000001  55.18000031
C    17.51000023  -2.46000004  54.50000000
C    16.87999916  -3.10999990  55.59999847
C    15.52999973  -3.42000008  55.61999893
C    25.35000038  -1.36000013  55.10000229
H    25.73519135  -2.05191994  55.84898376
H    21.05999947  -3.40000010  57.09999847
H    19.59000015  -1.84000003  52.57999802
H    21.75000000  -1.02999997  52.11999893
H    24.09000015  -0.56000000  52.75000000
H    23.39999962  -2.70000005  56.45999908
H    15.14000034  -3.88000011  56.52000046
H    25.22999954  -0.29999998  55.37000275
H    26.02000046  -1.38999999  54.22999954
