96

S    17.69000053   2.24000001  59.79999924
C    20.45999908   2.36000013  59.22000122
C    19.18000031   2.00999999  58.86000061
C    18.82999992   1.47000003  57.57999802
C    19.77000046   1.26999998  56.58000183
C    21.09000015   1.67999995  56.90000153
C    22.11000061   1.38999999  55.94999695
C    23.38999939   1.72999990  56.29000092
C    23.78000069   2.37000012  57.50000000
C    22.78000069   2.57999992  58.41999817
C    21.42999840   2.17999983  58.20999908
C    17.40999985   1.29999995  57.36000061
C    16.62999916   1.72000003  58.47000122
C    15.24000072   1.75000000  58.50999832
C    25.23999977   2.66999984  57.77999878
H    25.62330055   1.98857844  58.53950119
H    20.81999969   2.75999999  60.17000198
H    19.52000046   0.76999998  55.65000153
H    21.80999947   1.00999999  54.97000122
H    24.14999962   1.49000001  55.54999924
H    23.02999878   3.07000017  59.34999847
H    14.77000046   1.94999993  59.47000122
H    25.85000038   2.52999997  56.88999939
H    25.38999939   3.68000007  58.18000031
S    14.30999947   0.59000003  54.80999756
C    11.59000015   0.51999998  55.34000015
C    12.86000061   0.71000004  55.81999969
C    13.15999985   1.19000006  57.14000320
C    12.10000038   1.31999993  58.02000046
C    10.78999996   0.96000004  57.63000107
C     9.72999954   1.01999998  58.57999802
C     8.45000076   0.64999998  58.22999954
C     8.17000008   0.32999998  56.86999893
C     9.19000053   0.22000000  55.96000290
C    10.52000046   0.64999998  56.25000000
C    14.59000015   1.35000002  57.34000397
C    15.34000015   1.02999997  56.18999863
C    16.72999954   1.02999997  56.16000366
C     6.76000023  -0.08000001  56.52999878
H     6.29813004   0.56661808  55.78390121
H    11.47999954   0.02000000  54.38000107
H    12.30999947   1.51999998  59.06999969
H     9.92000008   1.28000009  59.61999893
H     7.68000031   0.62000000  58.99000168
H     9.02000046  -0.08000001  54.93000031
H    17.35999870   0.82999998  55.28999710
H     6.11000013  -0.13000000  57.41000366
H     6.71000004  -1.10000002  56.11000061
S    14.85999966  -1.25000000  51.63000107
C    12.20000076  -1.88999999  52.29000092
C    13.53999996  -1.93000007  52.61000061
C    14.00000000  -2.59999990  53.77999878
C    13.09999943  -3.17000008  54.66999817
C    11.71000004  -3.02999997  54.41999817
C    10.67999935  -3.53999996  55.27000046
C     9.34000015  -3.45000005  54.94999695
C     8.97000027  -2.64999986  53.83999634
C     9.88000011  -2.10999990  52.95999908
C    11.25000000  -2.38999987  53.22000122
C    15.43000031  -2.39999986  53.96999741
C    16.03000069  -1.75999999  52.85999680
C    17.38000107  -1.43999994  52.80000305
C     7.50000000  -2.38000011  53.62999725
H     7.17977381  -2.70734239  52.64085388
H    11.92999935  -1.33000004  51.39999771
H    13.43000031  -3.68999982  55.54999924
H    10.98000050  -3.91999984  56.24000168
H     8.71999931  -3.88000011  55.72999954
H     9.59999943  -1.48000002  52.11000061
H    17.79999924  -1.02999997  51.88999939
H     6.84999990  -2.77999997  54.41999817
H     7.32999992  -1.28999996  53.63999939
S    18.71000099  -2.91000009  56.27999878
C    21.37000084  -2.37000012  55.65000153
C    20.05000114  -2.28999996  55.28999710
C    19.61000061  -1.65999997  54.08000183
C    20.55999947  -1.18000007  53.20000076
C    21.94000053  -1.31999993  53.50000000
C    22.86000061  -0.69000000  52.62000275
C    24.18999863  -0.67000002  52.95999908
C    24.61999893  -1.25999999  54.18000031
C    23.75000000  -1.89999998  55.01999664
C    22.36000061  -1.94000006  54.72999954
C    18.17000008  -1.76999998  53.90999603
C    17.56999969  -2.49000001  54.98000336
C    16.21999931  -2.79999995  55.06000137
C    26.02000046  -0.92000002  54.65000153
H    26.34173965  -1.52057791  55.50082016
H    21.54000092  -2.61999989  56.69000244
H    20.31999969  -0.69999999  52.25000000
H    22.34000015  -0.09999999  51.86999893
H    24.77999878   0.07000000  52.43000031
H    24.09000015  -2.45000005  55.90000153
H    15.88000107  -3.24000001  55.98999786
H    26.07000160   0.17000002  54.79000092
H    26.67000008  -1.15999997  53.79000092
