96

S    16.67000008   2.27999997  59.82999802
C    19.43000031   2.33999991  59.27000046
C    18.15000153   2.00999999  58.88000107
C    17.85000038   1.46000004  57.58999634
C    18.86000061   1.28999996  56.65999985
C    20.17000008   1.72000003  56.98999786
C    21.25000000   1.75999999  56.05999756
C    22.50999832   2.19000006  56.39999771
C    22.76000023   2.66999984  57.70999908
C    21.73000145   2.75000000  58.61999893
C    20.40999985   2.37000012  58.25000000
C    16.43000031   1.29999995  57.34000397
C    15.67999935   1.82999992  58.41999817
C    14.29999924   1.97000003  58.39000320
C    24.14999962   3.12000012  58.06999969
H    24.65633774   2.32127213  58.61199188
H    19.65999985   2.73000002  60.26000214
H    18.60999870   0.78000003  55.72999954
H    21.15999985   1.23000002  55.12000275
H    23.36000061   2.20000005  55.72000122
H    21.88999939   3.08999991  59.64000320
H    13.71999931   2.06999993  59.31000137
H    24.84999847   3.24000001  57.22999954
H    24.14999962   4.05000019  58.66000366
S    13.38000107   0.46999997  54.80999756
C    10.70000076   0.23000000  55.47999954
C    11.95000076   0.65999997  55.84999847
C    12.23000050   1.36999989  57.05999756
C    11.18999958   1.63000000  57.93000031
C     9.88000011   1.21000004  57.60000229
C     8.84000015   1.36000013  58.56999969
C     7.57999992   0.90000004  58.29000092
C     7.31999969   0.16000001  57.09999847
C     8.31999969   0.02000000  56.16000366
C     9.63000011   0.55000001  56.35000229
C    13.66000080   1.59999990  57.19999695
C    14.40999985   0.99000001  56.16000366
C    15.80000019   0.88000000  56.16000366
C     5.91000032  -0.20999999  56.70999908
H     5.50309515   0.41820389  55.91760635
H    10.50000000  -0.37000000  54.59999847
H    11.31999969   2.03999996  58.93000031
H     9.06999969   1.61000001  59.59999847
H     6.84000015   1.15999997  59.03999710
H     8.21000004  -0.48999998  55.20999908
H    16.31999969   0.50999999  55.28999710
H     5.42999983  -0.23000000  57.69000244
H     5.93999958  -1.25999999  56.37000275
S    14.28999996  -1.57000005  52.15000153
C    11.67000008  -2.10999990  52.88999939
C    13.01000023  -2.29999995  53.13999939
C    13.47000027  -2.91000009  54.34999847
C    12.53999901  -3.38999987  55.26000214
C    11.16000080  -3.38000011  54.94999695
C    10.18000031  -3.95000005  55.80999756
C     8.85000038  -3.89999986  55.45999908
C     8.40999985  -3.17000008  54.31999969
C     9.32999992  -2.70000005  53.40999985
C    10.72000027  -2.72000027  53.75000000
C    14.88000011  -2.59999990  54.54000092
C    15.44000053  -1.85000002  53.47999954
C    16.75000000  -1.38999999  53.50000000
C     6.96000004  -3.10999990  53.88999939
H     6.64612722  -3.29547024  52.86277771
H    11.26000023  -1.52999997  52.06999969
H    12.76999950  -3.77999997  56.24000168
H    10.44999981  -4.57999992  56.65000153
H     8.09000015  -4.38000011  56.06999969
H     9.15000057  -2.10999990  52.51999664
H    17.12000084  -0.73000002  52.71999741
H     6.39999962  -3.75000000  54.59000015
H     6.74000025  -2.05999994  54.12000275
S    18.19000053  -2.94999981  56.86000061
C    20.81000137  -2.31999993  56.30000305
C    19.48999977  -2.16999984  55.93999863
C    18.98999977  -1.58000004  54.73999786
C    19.96999931  -1.01999998  53.93000031
C    21.34000015  -1.25000000  54.16999817
C    22.30999947  -0.87000000  53.20000076
C    23.65999985  -1.02999997  53.43999863
C    24.09000015  -1.58000004  54.66999817
C    23.19000053  -2.00999999  55.61000061
C    21.78999901  -1.92000008  55.35999680
C    17.56999969  -1.80000007  54.55999756
C    16.97999954  -2.47000003  55.66999817
C    15.65999985  -2.92000008  55.65999985
C    25.58000183  -1.79000008  54.86999893
H    25.97915077  -1.46925449  55.83223724
H    21.14000130  -2.77999997  57.22999954
H    19.64999962  -0.41999999  53.06999969
H    21.83000183  -0.39999998  52.35000229
H    24.33000183  -0.74000001  52.63000107
H    23.46999931  -2.47000003  56.56000137
H    15.18000031  -3.48000002  56.45000076
H    26.18999863  -1.42000008  54.03999710
H    25.75000000  -2.86999989  54.77000427
