96

S    17.43000031   1.95999992  60.02999878
C    20.17000008   1.93000007  59.38999939
C    18.86999893   1.66999996  59.03999710
C    18.57999992   1.13000000  57.74000168
C    19.59000015   0.94999999  56.81999969
C    20.93000031   1.13999999  57.25999832
C    22.04999924   0.93000001  56.39999771
C    23.34000015   1.25999999  56.73999786
C    23.64999962   1.98000002  57.93000031
C    22.60000038   2.16999984  58.79000092
C    21.28000069   1.71000004  58.53000259
C    17.14999962   0.87000000  57.58999634
C    16.40999985   1.38999999  58.68999863
C    15.03999901   1.57000005  58.56999969
C    25.06000137   2.33999991  58.30999756
H    25.42982864   1.68569255  59.09943390
H    20.32999992   2.37000012  60.37000275
H    19.37999916   0.61000001  55.80999756
H    21.84999847   0.62000000  55.38000107
H    24.04999924   1.13000000  55.93999863
H    22.72999954   2.63999987  59.77000427
H    14.47999954   2.16000009  59.29000092
H    25.73999786   2.27999997  57.44999695
H    25.09000015   3.40999985  58.56999969
S    14.09000015   0.28000000  54.92000198
C    11.36999989   0.13000000  55.52000046
C    12.63000011   0.54000002  55.89000320
C    12.92000008   0.92000002  57.23999786
C    11.90999985   1.04999995  58.16999817
C    10.59999943   0.63000000  57.83000183
C     9.55999947   0.50000000  58.80000305
C     8.28999996   0.04000000  58.55999756
C     8.05000019  -0.32000002  57.21000290
C     9.02999973  -0.34000003  56.24000168
C    10.34999943   0.11000000  56.51000214
C    14.34999943   1.02999997  57.48000336
C    15.08999920   0.67000002  56.32999802
C    16.46999931   0.50999999  56.43000031
C     6.65999985  -0.69999999  56.76000214
H     6.26963520  -0.18897671  55.87990570
H    11.10999966  -0.39000002  54.59999847
H    12.15000057   1.07000005  59.22999954
H     9.81999969   0.82999998  59.79999924
H     7.57999992   0.08000001  59.38000107
H     8.76000023  -0.64999998  55.24000168
H    17.13000107   0.34000003  55.58000183
H     6.05000019  -0.50000000  57.64999771
H     6.61000013  -1.75999999  56.45000076
S    18.02000046   2.10999990  53.97999573
C    20.73999786   2.30999994  53.29999924
C    19.45999908   1.92000008  52.95999908
C    19.11999893   1.51999998  51.63000107
C    20.13000107   1.29999995  50.72000122
C    21.45999908   1.67999995  51.00000000
C    22.56000137   1.69000006  50.10000229
C    23.87000084   1.94999993  50.44000244
C    24.11000061   2.63999987  51.65000153
C    23.05999947   2.73999977  52.54000092
C    21.75000000   2.21000004  52.30999756
C    17.68000031   1.44999993  51.40999603
C    16.97999954   1.85000002  52.56999969
C    15.60999966   2.09000015  52.47000122
C    25.48000145   3.05000019  52.12999725
H    25.94856834   2.36844850  52.83995056
H    21.02999878   2.70000005  54.27000046
H    19.96000099   0.90000004  49.72000122
H    22.23999977   1.16999996  49.20000076
H    24.64999962   1.84000003  49.69999695
H    23.39999962   3.07000017  53.50999832
H    15.03000069   2.31999993  53.36000061
H    26.04000092   3.09999990  51.18000031
H    25.28000069   4.00999975  52.62000275
S    14.57999992   0.56000000  48.95000076
C    11.90000057   0.52999997  49.50000000
C    13.12999916   0.99000001  49.87999725
C    13.45999908   1.54999995  51.16000366
C    12.43000031   1.79000008  52.05999756
C    11.14999962   1.28000009  51.77999878
C    10.19999981   1.25000000  52.84000015
C     8.90999985   0.88999999  52.52999878
C     8.61999989   0.27000001  51.29000092
C     9.59999943   0.11000000  50.34000015
C    10.90000057   0.67000002  50.48999786
C    14.89999962   1.65999997  51.35000229
C    15.62999916   1.03999996  50.30000305
C    17.01000023   0.92000002  50.30000305
C     7.26000023  -0.31000000  50.98999786
H     6.59891748   0.25867313  50.33602524
H    11.64999962  -0.03000000  48.60000229
H    12.64999962   2.15000010  53.06000137
H    10.39000034   1.75000000  53.79000092
H     8.15999985   0.99000001  53.30999756
H     9.36999989  -0.39000002  49.40000153
H    17.48999977   0.46000001  49.43999863
H     6.69000053  -0.48000002  51.90999985
H     7.44000006  -1.28999996  50.54000092
