96

S    17.11000061   2.06999993  59.68000031
C    19.78000069   2.13000011  58.93000031
C    18.50000000   1.74000001  58.61999893
C    18.15999985   1.12000000  57.36999893
C    19.12999916   1.08000004  56.38999939
C    20.46999931   1.43999994  56.66999817
C    21.54999924   1.43000007  55.75000000
C    22.82999992   1.75000000  56.14999771
C    23.15000153   2.25000000  57.43000031
C    22.13000107   2.29999995  58.34999847
C    20.81000137   1.94000006  57.97999954
C    16.70999908   1.04999995  57.29999924
C    15.98000050   1.56000006  58.40999985
C    14.60000038   1.71000004  58.40999985
C    24.54000092   2.66000009  57.85999680
H    24.98892784   1.93316388  58.53695679
H    20.00999832   2.50000000  59.93000031
H    18.81000137   0.86000001  55.37000275
H    21.25000000   1.13000000  54.73999786
H    23.62999916   1.75999999  55.41999817
H    22.18000031   2.68000007  59.36999893
H    14.21000004   2.13000011  59.33000183
H    25.22999954   2.77999997  57.01000214
H    24.40999985   3.61000013  58.37999725
S    13.50000000   0.46000001  54.82999802
C    10.78999996   0.31000000  55.45999908
C    12.05999947   0.71000004  55.83000183
C    12.43999958   1.38999999  57.02999878
C    11.40999985   1.44999993  57.95999908
C    10.07999992   1.03999996  57.71999741
C     9.01000023   1.05999994  58.64999771
C     7.73000002   0.64000005  58.36000061
C     7.40999985   0.22000000  57.04000092
C     8.43000031   0.11000000  56.12999725
C     9.77000046   0.48999998  56.42000198
C    13.86999989   1.53999996  57.22000122
C    14.57999992   1.10000002  56.06999969
C    15.93999958   0.82000005  56.14999771
C     6.01999998  -0.34000003  56.84000015
H     5.61492443   0.15746137  55.95878220
H    10.54999924  -0.27000001  54.58000183
H    11.61000061   1.89999998  58.93000031
H     9.30999947   1.42000008  59.62999725
H     6.93000031   0.87000000  59.05000305
H     8.27000046  -0.22000000  55.10000229
H    16.48999977   0.46999997  55.27999878
H     5.46999979  -0.14999999  57.77999878
H     6.15999985  -1.41000009  56.66999817
S    14.19999981  -1.34000003  51.79000092
C    11.50000000  -2.09999990  52.28000259
C    12.84000015  -2.19000006  52.56999969
C    13.30999947  -2.77999997  53.79000092
C    12.39999962  -3.25000000  54.71000290
C    11.02000046  -3.23000002  54.40999985
C    10.08999920  -3.81999993  55.31000137
C     8.75000000  -3.81000018  54.97000122
C     8.25000000  -3.09999990  53.85000229
C     9.13999939  -2.40999985  53.06000137
C    10.53999996  -2.57999992  53.20999908
C    14.73999977  -2.73999977  54.03999710
C    15.31999969  -1.90999997  53.04000092
C    16.67000008  -1.57000005  53.02999878
C     6.76999998  -2.82000017  53.68999863
H     6.32053232  -3.29800558  52.81960297
H    11.31999969  -1.41000009  51.45999908
H    12.75000000  -3.91000009  55.50000000
H    10.47000027  -4.28000021  56.20999908
H     8.07999992  -4.25000000  55.70000076
H     8.71999931  -1.79000008  52.27000427
H    17.15999985  -0.88999999  52.34000397
H     6.19000006  -3.00999999  54.61000061
H     6.70000029  -1.72999990  53.62999725
S    18.04000092  -3.22000003  56.40999603
C    20.69999886  -2.47000003  55.86000061
C    19.37000084  -2.49000001  55.50000000
C    18.85000038  -1.94000006  54.29000092
C    19.72999954  -1.24000001  53.48999786
C    21.11999893  -1.34000003  53.70999908
C    22.11999893  -0.79999995  52.84999847
C    23.47999954  -0.78000003  53.08000183
C    23.92999840  -1.39999998  54.27000046
C    23.01000214  -1.85000002  55.19000244
C    21.61000061  -1.85000002  54.95999908
C    17.42000008  -2.14000010  54.06000137
C    16.87000084  -2.92000008  55.11000061
C    15.52999973  -3.25999999  55.06999969
C    25.38000107  -1.19000006  54.61999893
H    25.59369278  -1.57464719  55.61723709
H    21.05999947  -3.00999999  56.73999786
H    19.31999969  -0.94999999  52.51999664
H    21.70999908  -0.41000003  51.91999817
H    24.18999863  -0.22000000  52.48000336
H    23.38000107  -2.44000006  56.03000259
H    15.13000011  -3.77999997  55.93999863
H    25.66999817  -0.13000000  54.59999847
H    25.97999954  -1.70000005  53.85000229
