96

S    16.84000015   2.04999995  60.13000107
C    19.55999947   2.16999984  59.31000137
C    18.27000046   1.74000001  59.13000107
C    17.94999886   1.08999991  57.90000153
C    18.92000008   0.86000001  56.93999863
C    20.25000000   1.31999993  57.08000183
C    21.22999954   1.25999999  56.04999924
C    22.56999969   1.48000002  56.29000092
C    22.88999939   2.00999999  57.56999969
C    21.93000031   2.34999990  58.50000000
C    20.56999969   1.97000003  58.33000183
C    16.51000023   1.01999998  57.70000076
C    15.77999973   1.50000000  58.81999969
C    14.44000053   1.82999992  58.68999863
C    24.31999969   2.27999997  57.97000122
H    24.54654503   1.63575852  58.81954956
H    19.95000076   2.80999994  60.10000229
H    18.71999931   0.25000000  56.06999969
H    20.90999985   0.75999999  55.14999771
H    23.22000122   1.08000004  55.52000046
H    22.19000053   2.77999997  59.47000122
H    13.85000038   2.27999997  59.47999954
H    24.93000031   1.94999993  57.11999893
H    24.47999954   3.30999994  58.30999756
S    13.40999985   0.37000000  55.06000137
C    10.67000008   0.29999998  55.68000031
C    11.95000076   0.68000007  56.02000427
C    12.30999947   1.19000006  57.30999756
C    11.26999950   1.38000000  58.20000076
C     9.92000008   1.10000002  57.88000107
C     8.90999985   1.23000002  58.88000107
C     7.59999990   0.96000004  58.56999969
C     7.26000023   0.51999998  57.25999832
C     8.23999977   0.28000000  56.32999802
C     9.61000061   0.54000002  56.59000015
C    13.73000050   1.38000000  57.56999969
C    14.42000008   0.88999999  56.42000198
C    15.80000019   0.76999998  56.52000046
C     5.79999971   0.24000001  56.97000122
H     5.36065054   0.62265933  56.04878235
H    10.44000053  -0.08000001  54.68999863
H    11.49000072   1.82999992  59.15999985
H     9.06999969   1.53999996  59.91000366
H     6.83000040   0.94999999  59.33000183
H     7.96000004  -0.14000000  55.37000275
H    16.38000107   0.52999997  55.63000107
H     5.21000004   0.64999998  57.80000305
H     5.52999973  -0.82000005  56.93000031
S    16.92000008   2.11999989  53.75000000
C    19.60000038   2.26999998  53.15000153
C    18.36000061   1.82999992  52.75000000
C    18.02000046   1.19000006  51.52000046
C    19.04999924   0.96000004  50.63000107
C    20.36999893   1.19999993  51.04999924
C    21.45000076   0.97000003  50.13999939
C    22.69000053   1.50999999  50.35999680
C    23.02000046   2.09000015  51.60999680
C    22.01999855   2.25000000  52.52999878
C    20.65999985   1.93000007  52.25999832
C    16.56999969   1.11000001  51.35000229
C    15.82999992   1.52999997  52.48000336
C    14.45000076   1.61000001  52.41000366
C    24.44000053   2.56000018  51.88000107
H    24.89466667   1.89220619  52.61173248
H    19.73999977   2.72000027  54.12000275
H    18.89999962   0.71000004  49.58000183
H    21.25999832   0.68000007  49.10999680
H    23.45000076   1.44999993  49.58000183
H    22.29000092   2.77999997  53.43999863
H    13.93000031   2.13000011  53.20999908
H    25.00000000   2.52999997  50.93000031
H    24.47999954   3.61000013  52.15999985
S    13.38999939   0.22000000  48.88999939
C    10.65000057   0.50999999  49.43999863
C    11.96000004   0.64000005  49.85000229
C    12.25999928   1.13000000  51.17000198
C    11.21000099   1.33000004  52.04000092
C     9.85999966   1.05999994  51.68000031
C     8.78999996   1.23000002  52.60000229
C     7.49000025   1.01999998  52.22000122
C     7.14999962   0.71000004  50.87999725
C     8.18000031   0.59999996  49.98000336
C     9.55999947   0.69999999  50.31999969
C    13.71000099   1.15999997  51.31000137
C    14.47999954   0.79999995  50.17000198
C    15.85999966   0.69999999  50.20999908
C     5.69000006   0.50000000  50.54999924
H     5.42111254   0.68397588  49.50983047
H    10.51000023   0.31000000  48.37999725
H    11.44000053   1.82999992  52.97000122
H     8.98999977   1.81999993  53.48999786
H     6.72999954   1.28999996  52.95000076
H     7.96000004   0.34000003  48.94000244
H    16.28999901   0.20999999  49.34000015
H     5.05000019   1.12000000  51.19999695
H     5.50000000  -0.51999998  50.90000153
