96

S    16.53000069   1.74000001  60.11000061
C    19.27000046   1.75999999  59.43000031
C    17.98999977   1.30999994  59.20000076
C    17.64999962   0.75999999  57.91999817
C    18.68000031   0.45000002  57.04999924
C    20.03000069   0.79999995  57.27000427
C    21.09000015   0.52999997  56.36000061
C    22.40999985   0.75999999  56.70000076
C    22.70000076   1.44999993  57.90000153
C    21.67000008   1.80000007  58.75000000
C    20.30999947   1.44999993  58.52000427
C    16.21999931   0.69999999  57.63999939
C    15.51000023   1.24000001  58.75000000
C    14.13000011   1.38999999  58.64999771
C    24.09000015   1.95999992  58.25000000
H    24.63061714   1.31979311  58.94711304
H    19.57999992   2.38999987  60.26000214
H    18.31999969   0.16000001  56.06999969
H    20.82999992   0.22000000  55.34999847
H    23.15000153   0.55000001  55.93000031
H    21.81999969   2.38000011  59.65000153
H    13.64999962   1.74000001  59.55999756
H    24.71999931   2.00999999  57.36000061
H    24.09000015   2.98000002  58.64999771
S    13.20000076   0.03000000  55.06000137
C    10.42000008  -0.06000000  55.65999985
C    11.72000027   0.25000000  56.00999832
C    11.98999977   0.86000001  57.27000427
C    10.98999977   1.08999991  58.20000076
C     9.68000031   0.65999997  57.90000153
C     8.61999989   0.65999997  58.86000061
C     7.32999992   0.27000001  58.59000397
C     7.05999947  -0.14000000  57.25999832
C     8.03999996  -0.27000001  56.30000305
C     9.36999989   0.12000000  56.59000015
C    13.40999985   1.08000004  57.49000168
C    14.19999981   0.61000001  56.40999603
C    15.57000065   0.38000000  56.45000076
C     5.61999989  -0.52999997  57.01000214
H     5.02845383   0.21834171  56.48259735
H    10.26000023  -0.61000001  54.72999954
H    11.18999958   1.25999999  59.25000000
H     8.94999981   1.08999991  59.79999924
H     6.63000011   0.43000001  59.40000153
H     7.82999992  -0.82000005  55.38999939
H    16.06999969   0.04000000  55.54000092
H     5.21000004  -0.88000000  57.97000122
H     5.77000046  -1.36999989  56.31999969
S    13.89000034  -1.84000003  52.01000214
C    11.18999958  -2.45000005  52.62000275
C    12.51999950  -2.50000000  52.94000244
C    12.90999985  -3.10999990  54.16999817
C    12.00000000  -3.63000011  55.07999802
C    10.62999916  -3.60000014  54.72999954
C     9.63000011  -3.95000005  55.68999863
C     8.30000019  -3.93000007  55.34000015
C     7.88000011  -3.38000011  54.09999847
C     8.82999992  -2.99000001  53.16999817
C    10.21999931  -3.08999991  53.44999695
C    14.34999943  -2.98000002  54.38000107
C    14.98999977  -2.27999997  53.33000183
C    16.34000015  -1.94999993  53.40000153
C     6.42000008  -3.00999999  54.00000000
H     5.96204281  -3.52520204  53.15563965
H    10.98000050  -1.95999992  51.68000031
H    12.38000011  -4.03999996  56.00999832
H     9.98999977  -4.32999992  56.63999939
H     7.59999990  -4.23999977  56.11000061
H     8.46000004  -2.44000006  52.30999756
H    16.80999947  -1.33000004  52.64999771
H     5.95000029  -3.30000019  54.94999695
H     6.28000021  -1.92000008  53.93000031
S    17.60000038  -3.61999989  56.79999924
C    20.29000092  -3.16000009  56.05999756
C    18.95000076  -2.93000007  55.87999725
C    18.51000023  -2.33999991  54.65000153
C    19.45999908  -1.84000003  53.76999664
C    20.84000015  -1.90999997  54.05000305
C    21.84999847  -1.25000000  53.27999878
C    23.18000031  -1.58000004  53.37999725
C    23.62999916  -2.44000006  54.41999817
C    22.70000076  -2.92000008  55.31999969
C    21.30000114  -2.71000004  55.15999603
C    17.06999969  -2.38999987  54.51000214
C    16.43000031  -3.08999991  55.56999969
C    15.08999920  -3.42999983  55.47999954
C    25.06999969  -2.86999989  54.52000046
H    25.51735497  -2.60726762  55.47861862
H    20.53999901  -3.68000007  56.97999954
H    19.11999893  -1.36999989  52.84999847
H    21.54999924  -0.59999996  52.47000122
H    23.90000153  -1.13999999  52.70000076
H    22.98000145  -3.51000023  56.18000031
H    14.61999989  -4.17000008  56.11999893
H    25.66999817  -2.51999998  53.67000198
H    25.13000107  -3.95000005  54.34999847
