96

S    18.02000046   1.49000001  59.98000336
C    20.72999954   1.56000006  59.43999863
C    19.45999908   1.36999989  58.95000076
C    19.09000015   1.12000000  57.58999634
C    20.15999985   0.94999999  56.72999954
C    21.47999954   1.19999993  57.15000153
C    22.50999832   1.24000001  56.16000366
C    23.78000069   1.58999991  56.52999878
C    24.11999893   2.03999996  57.84000015
C    23.12000084   1.95999992  58.77999878
C    21.80999947   1.47000003  58.52000427
C    17.64999962   1.08999991  57.38999939
C    16.93000031   1.31999993  58.59000397
C    15.53999996   1.38999999  58.64999771
C    25.45999908   2.61999989  58.23999786
H    26.12700081   1.91042638  58.72960663
H    20.86000061   2.01999998  60.41999817
H    19.85999870   0.74000001  55.70000076
H    22.15999985   1.05999994  55.13999939
H    24.54000092   1.62000000  55.75000000
H    23.28000069   2.38999987  59.75999832
H    15.03000069   1.44999993  59.61000061
H    25.93000031   2.96000004  57.30999756
H    25.34000015   3.42000008  58.97999573
S    14.48999977   0.19999999  55.00000000
C    11.78999996   0.05000000  55.63000107
C    13.07000065   0.32999998  56.05999756
C    13.35999966   0.87000000  57.35000229
C    12.28999996   1.13000000  58.18999863
C    10.97000027   0.79999995  57.81999969
C     9.89999962   1.00999999  58.75000000
C     8.60000038   0.79999995  58.36999893
C     8.34000015   0.48000002  57.01000214
C     9.32999992   0.13000000  56.12999725
C    10.69000053   0.32999998  56.49000168
C    14.78999996   1.08000004  57.50999832
C    15.52000046   0.71999997  56.35000229
C    16.90999985   0.67000002  56.27999878
C     6.90999985   0.14999999  56.65999985
H     6.41269684   0.97410226  56.14848709
H    11.47999954  -0.31000000  54.65000153
H    12.55000019   1.62000000  59.12000275
H     9.98000050   1.23000002  59.80999756
H     7.72000027   0.75000000  59.01000214
H     9.17000008  -0.14000000  55.07999802
H    17.35000038   0.25999999  55.38000107
H     6.37000036  -0.14000000  57.56999969
H     6.89000034  -0.71000004  55.97000122
S    14.98999977  -1.41000009  51.88999939
C    12.32999992  -2.24000001  52.36999893
C    13.67000008  -2.30999994  52.65999603
C    14.11000061  -2.98000002  53.85000229
C    13.15000057  -3.45000005  54.72000122
C    11.75000000  -3.32999992  54.48999786
C    10.73999977  -3.86000013  55.33000183
C     9.39999962  -3.70000005  55.04000092
C     9.06000042  -2.82999992  53.97999573
C     9.96999931  -2.31999993  53.08000183
C    11.32999992  -2.70000005  53.27000046
C    15.52999973  -2.82999992  54.15000153
C    16.10000038  -2.03999996  53.11000061
C    17.45000076  -1.67999995  53.18000031
C     7.63000011  -2.40999985  53.73000336
H     7.21132469  -3.02736831  52.93523026
H    12.00000000  -1.59999990  51.56000137
H    13.48000050  -3.88999987  55.65000153
H    11.03000069  -4.44000006  56.20999908
H     8.67000008  -4.18000031  55.68999863
H     9.63999939  -1.74000001  52.22000122
H    17.94999886  -1.19000006  52.35000229
H     7.04999971  -2.44000006  54.65999985
H     7.63000011  -1.33000004  53.57999802
S    18.88000107  -3.24000001  56.47999573
C    21.54999924  -2.61999989  55.79000092
C    20.20000076  -2.49000001  55.56999969
C    19.70999908  -1.79000008  54.41999817
C    20.61000061  -1.19000006  53.54999924
C    22.00000000  -1.25000000  53.79000092
C    22.96999931  -0.68000007  52.90999985
C    24.30000114  -0.88999999  53.18999863
C    24.77999878  -1.72999990  54.22000122
C    23.87000084  -2.30999994  55.06999969
C    22.47999954  -2.02999997  54.89999771
C    18.27999878  -2.00999999  54.25000000
C    17.65999985  -2.75999999  55.27999878
C    16.32999992  -3.17000008  55.25000000
C    26.22999954  -2.11999989  54.36999893
H    26.57877159  -2.15558887  55.40208054
H    21.87000084  -3.40000010  56.49000168
H    20.29999924  -0.74000001  52.61000061
H    22.50000000  -0.25999999  52.02999878
H    24.94999886  -0.50000000  52.41000366
H    24.06999969  -3.09999990  55.79000092
H    15.95999908  -3.74000025  56.09000397
H    26.65999985  -1.26999998  53.82999802
H    26.40999985  -3.03999996  53.80000305
