96

S    16.92000008   1.58999991  60.13999939
C    19.59000015   2.00000000  59.50000000
C    18.38000107   1.43999994  59.15000153
C    18.12000084   1.13000000  57.77000046
C    19.14999962   1.26999998  56.86000061
C    20.45999908   1.67999995  57.18999863
C    21.52000046   1.58999991  56.24000168
C    22.76000023   2.00999999  56.65000153
C    22.98000145   2.48000002  57.97000122
C    21.94999886   2.56999993  58.87000275
C    20.62999916   2.14000010  58.54999924
C    16.69000053   0.97999996  57.57999802
C    15.90000057   1.19999993  58.74000168
C    14.51000023   1.30999994  58.74000168
C    24.41999817   2.86000013  58.22999954
H    24.81921768   2.22552800  59.02130890
H    19.82999992   2.39999986  60.47999954
H    18.89999962   1.21000004  55.79999924
H    21.44000053   1.23000002  55.21999741
H    23.61000061   1.89999998  55.97999954
H    22.11999893   2.93000007  59.87999725
H    13.94000053   1.39999998  59.65999985
H    25.10999870   2.66999984  57.39999771
H    24.48999786   3.94000006  58.43000031
S    13.53000069   0.13000000  55.12000275
C    10.85999966  -0.14999999  55.87999725
C    12.10000038   0.39000002  56.12999725
C    12.39999962   0.97999996  57.39999771
C    11.40999985   1.08999991  58.36000061
C    10.08999920   0.65999997  58.04999924
C     9.15999985   0.67000002  59.12000275
C     7.90999985   0.13000000  58.90999603
C     7.55000019  -0.37000000  57.63000107
C     8.45000076  -0.43000001  56.59999847
C     9.77999973   0.03000000  56.79000092
C    13.83999920   1.08999991  57.52999878
C    14.60000038   0.78000003  56.38000107
C    15.98999977   0.69000000  56.39999771
C     6.11999989  -0.79000002  57.37999725
H     5.60767031  -0.14247227  56.66843033
H    10.82999992  -0.65999997  54.93000031
H    11.56000042   1.25999999  59.43000031
H     9.52000046   0.92000002  60.12000275
H     7.18999958   0.14000000  59.72000122
H     8.10999966  -0.97999996  55.72000122
H    16.51000023   0.34999999  55.51000214
H     5.53999996  -0.97999996  58.29999924
H     6.24000025  -1.76999998  56.90999985
S    17.52000046   2.54999995  53.88000107
C    20.20000076   2.70000005  53.11999893
C    18.89999962   2.38999987  52.77999878
C    18.54999924   1.94000006  51.45999908
C    19.61000061   1.66999996  50.61999893
C    20.95000076   2.02999997  50.90999985
C    22.07999992   1.80000007  50.08999634
C    23.35000038   2.19000006  50.44000244
C    23.61999893   2.93000007  51.62000275
C    22.53999901   3.12000012  52.45999908
C    21.21000099   2.75999999  52.12999725
C    17.10000038   1.89999998  51.35000229
C    16.39999962   2.24000001  52.54000092
C    15.01999950   2.16999984  52.70999908
C    25.00999832   3.40000010  51.98999786
H    25.40692329   2.77626181  52.79093552
H    20.32999992   3.03999996  54.13999939
H    19.30999947   1.11000001  49.73999786
H    21.73999977   1.30999994  49.16999817
H    24.18000031   1.95999992  49.78000259
H    22.69000053   3.63999987  53.40000153
H    14.55000019   2.36000013  53.67000198
H    25.68000031   3.40999985  51.12999725
H    24.93999863   4.42000008  52.37999725
S    13.90999985   0.75000000  49.13999939
C    11.21000099   0.46999997  49.93999863
C    12.48999977   0.90999997  50.19000244
C    12.86000061   1.47000003  51.45000076
C    11.90000057   1.58000004  52.44999695
C    10.54999924   1.28000009  52.16999817
C     9.55999947   1.52999997  53.15000153
C     8.31999969   0.97000003  52.97999954
C     7.97999954   0.22000000  51.81999969
C     8.89999962   0.05000000  50.80999756
C    10.21999931   0.56999999  50.96000290
C    14.27999973   1.74000001  51.59999847
C    14.96999931   1.43000007  50.38999939
C    16.35000038   1.38999999  50.27999878
C     6.57000017  -0.19999999  51.46999741
H     6.12095451   0.51989758  50.78573990
H    10.97000027  -0.19000000  49.10999680
H    12.20999908   1.97000003  53.40999985
H     9.86999989   1.92000008  54.12000275
H     7.57999992   1.22000003  53.74000168
H     8.57999992  -0.46999997  49.91000366
H    16.82999992   0.90000004  49.43999863
H     5.97000027  -0.32000002  52.37999725
H     6.54999971  -1.23000002  51.10000229
