96

S    17.82999992   2.01999998  60.11000061
C    20.52999878   2.04999995  59.27999878
C    19.22000122   1.67999995  59.06000137
C    18.88000107   1.46000004  57.69000244
C    19.86999893   1.35000002  56.72999954
C    21.22999954   1.64000010  57.00000000
C    22.29999924   1.35000002  56.11000061
C    23.59000015   1.62000000  56.47999573
C    23.90999985   2.27999997  57.70000076
C    22.93000031   2.38999987  58.66000366
C    21.57999992   2.05999994  58.33000183
C    17.43999863   1.46000004  57.50999832
C    16.76000023   1.77999997  58.70999908
C    15.38000011   1.90999997  58.70999908
C    25.31999969   2.52999997  58.18999863
H    25.68294525   1.76852560  58.88031006
H    20.73999786   2.50999975  60.24000168
H    19.63999939   1.12000000  55.68999863
H    22.09000015   0.81000000  55.19000244
H    24.40999985   1.39999998  55.79999924
H    23.12000084   2.75000000  59.66999817
H    14.96999931   2.16999984  59.68999863
H    26.04000092   2.54999995  57.36000061
H    25.36999893   3.49000001  58.72000122
S    14.19999981   0.76999998  55.07999802
C    11.51000023   0.76999998  55.81999969
C    12.79999924   1.16999996  56.09000397
C    13.20000076   1.58000004  57.41000366
C    12.28000069   1.77999997  58.43000031
C    10.92000008   1.52999997  58.15000153
C     9.96000004   1.58000004  59.20000076
C     8.69999981   1.08000004  58.99000168
C     8.32999992   0.64999998  57.69000244
C     9.21000004   0.64999998  56.63000107
C    10.55999947   1.03999996  56.84999847
C    14.63999939   1.64000010  57.55000305
C    15.31999969   1.33000004  56.33999634
C    16.70999908   1.28999996  56.31999969
C     6.96000004   0.06000000  57.42000198
H     6.38917494   0.73071939  56.77782440
H    11.26999950   0.16000001  54.95999908
H    12.72999954   1.93000007  59.40000153
H    10.34000015   1.74000001  60.20999908
H     8.01999950   0.90999997  59.81999969
H     8.93000031   0.17000002  55.70000076
H    17.23999977   1.19999993  55.38000107
H     6.38000011  -0.05000000  58.34999847
H     7.04999971  -0.93999994  56.97000122
S    18.54999924   2.56999993  53.60000229
C    21.19999886   2.93000007  52.83000183
C    19.96999931   2.38000011  52.56000137
C    19.59000015   1.94000006  51.25000000
C    20.53999901   2.00000000  50.25000000
C    21.87999916   2.30999994  50.59000015
C    22.98000145   2.01999998  49.73999786
C    24.30999947   2.24000001  50.02999878
C    24.63000107   2.86000013  51.25999832
C    23.61999893   3.10999990  52.15999985
C    22.26000023   2.80999994  51.88000107
C    18.15000153   1.79000008  51.10000229
C    17.45000076   2.24000001  52.23999786
C    16.07999992   2.46000004  52.31999969
C    26.02999878   3.17000008  51.73999786
H    26.44273567   2.40857553  52.40179825
H    21.42000008   3.25999999  53.83999634
H    20.35000038   1.87999988  49.18000031
H    22.84000015   1.52999997  48.77999878
H    25.13000107   1.90999997  49.40000153
H    23.90999985   3.51999998  53.13000107
H    15.62999916   2.54999995  53.29999924
H    26.64999962   3.35999990  50.84999847
H    25.92000008   4.17000008  52.18999863
S    14.93000031   1.43000007  48.70999908
C    12.22000027   1.34000003  49.43000031
C    13.50999928   1.72000003  49.72999954
C    13.83999920   2.24000001  51.03000259
C    12.79000092   2.43000007  51.90999985
C    11.51000023   1.87999988  51.70000076
C    10.44999981   1.94000006  52.65999603
C     9.13999939   1.77999997  52.29000092
C     8.82000065   1.19999993  51.03000259
C     9.82999992   1.00000000  50.13000107
C    11.18000031   1.36000013  50.40000153
C    15.29000092   2.32999992  51.17000198
C    16.02000046   1.94000006  50.01999664
C    17.36999893   1.63000000  49.93999863
C     7.36000013   0.90999997  50.76000214
H     6.94859505   1.48454797  49.93009949
H    11.87000084   1.13000000  48.41999817
H    12.93000031   2.89000010  52.88000107
H    10.53999996   2.56999993  53.54000092
H     8.40999985   2.22000003  52.97000122
H     9.55999947   0.55000001  49.16999817
H    17.94000053   1.28000009  49.08000183
H     6.84000015   1.03999996  51.72000122
H     7.32999992  -0.17000002  50.56000137
