96

S    16.84999847   1.66999996  59.94999695
C    19.55999947   1.94999993  59.29999924
C    18.27999878   1.59999990  58.90999603
C    17.93000031   1.19000006  57.57999802
C    18.96999931   1.10000002  56.66999817
C    20.29999924   1.44999993  56.97000122
C    21.34000015   1.19999993  56.03000259
C    22.63999939   1.50000000  56.37000275
C    22.84000015   2.14000010  57.62000275
C    21.88999939   2.34999990  58.59000397
C    20.55000114   1.99000001  58.27999878
C    16.50000000   1.13999999  57.36000061
C    15.77999973   1.36999989  58.55999756
C    14.39000034   1.44999993  58.53000259
C    24.26000214   2.38999987  58.06999969
H    24.52301216   1.76445997  58.92300797
H    19.77000046   2.45000005  60.22999573
H    18.81000137   0.94999999  55.59999847
H    20.95999908   0.76999998  55.11000061
H    23.44000053   1.16999996  55.72000122
H    22.11999893   2.63999987  59.61999893
H    13.90999985   1.84000003  59.41999817
H    24.96000099   2.29999995  57.22999954
H    24.23999977   3.42999983  58.40999985
S    13.32999992   0.31000000  54.88999939
C    10.62000084   0.12000000  55.59000015
C    11.90999985   0.44000000  55.93999863
C    12.25000000   0.88000000  57.25999832
C    11.28000069   0.99000001  58.23999786
C     9.94999981   0.65999997  57.88000107
C     8.86999989   0.74000001  58.81000137
C     7.55000019   0.51999998  58.47999954
C     7.23000002   0.06000000  57.16999817
C     8.22000027   0.02000000  56.22000122
C     9.57999992   0.32000002  56.53999710
C    13.68000031   1.11000001  57.36999893
C    14.42000008   0.69999999  56.23000336
C    15.80999947   0.75000000  56.20999908
C     5.79999971  -0.32000002  56.88000107
H     5.28733206   0.42764053  56.27476883
H    10.47000027  -0.13000000  54.54999924
H    11.49000072   1.29999995  59.26000214
H     9.02000046   1.08999991  59.82999802
H     6.83000040   0.56999999  59.29000092
H     8.09000015  -0.46000001  55.26000214
H    16.35000038   0.45000002  55.31999969
H     5.32999992  -0.51999998  57.84999847
H     5.82000017  -1.25000000  56.30000305
S    17.20000076   2.38000011  53.68999863
C    19.93000031   2.37000012  53.11999893
C    18.65999985   1.98000002  52.76000214
C    18.25000000   1.51999998  51.46999741
C    19.19999886   1.49000001  50.45999908
C    20.53999901   1.77999997  50.79000092
C    21.60000038   1.57000005  49.86000061
C    22.86999893   2.02999997  50.07999802
C    23.26000023   2.37000012  51.39999771
C    22.29999924   2.38000011  52.39999771
C    20.92000008   2.20000005  52.11000061
C    16.80999947   1.38999999  51.30000305
C    16.07999992   1.94999993  52.37999725
C    14.68999958   2.03999996  52.36999893
C    24.70999908   2.66999984  51.69000244
H    25.10155487   2.16453862  52.57277679
H    20.06999969   2.77999997  54.10999680
H    18.95000076   1.02999997  49.50000000
H    21.35999870   1.23000002  48.86000061
H    23.61999893   1.98000002  49.29000092
H    22.63000107   2.63999987  53.40000153
H    14.22000027   2.45000005  53.25000000
H    25.36999893   2.59000015  50.81999969
H    24.70000076   3.68000007  52.11999893
S    13.66000080   0.44000000  48.89999771
C    10.93999958   0.56000000  49.48999786
C    12.23000050   0.88999999  49.85000229
C    12.53000069   1.52999997  51.09000397
C    11.51000023   1.64000010  52.02000046
C    10.19000053   1.24000001  51.73999786
C     9.15000057   1.36999989  52.70000076
C     7.85000038   1.04999995  52.37999725
C     7.53999996   0.64000005  51.04999924
C     8.52999973   0.48000002  50.11000061
C     9.89999962   0.64999998  50.45999908
C    13.97999954   1.61000001  51.25000000
C    14.72000027   1.03999996  50.18000031
C    16.10999870   0.97999996  50.15999603
C     6.14000034   0.25000000  50.65000153
H     5.72033596   0.95418251  49.93159485
H    10.64000034   0.13000000  48.54000092
H    11.71000004   1.99000001  53.02999878
H     9.34000015   1.77999997  53.68999863
H     7.07000017   1.22000003  53.11999893
H     8.27999973   0.25000000  49.08000183
H    16.68000031   0.56999999  49.34000015
H     5.47999954   0.12000000  51.52000046
H     6.28999996  -0.74000001  50.21999741
