96

S    17.07999992   1.76999998  60.04000092
C    19.76000023   2.20000005  59.47000122
C    18.57999992   1.59999990  59.09999847
C    18.23999977   1.18000007  57.77000046
C    19.26000023   1.08000004  56.84999847
C    20.52000046   1.64000010  57.15000153
C    21.64999962   1.43999994  56.31000137
C    22.92000008   1.87999988  56.60999680
C    23.12000084   2.49000001  57.88000107
C    22.06999969   2.66000009  58.75000000
C    20.76000023   2.17999983  58.46000290
C    16.81999969   0.92000002  57.54000092
C    16.05999947   1.34000003  58.66000366
C    14.67000008   1.38999999  58.62999725
C    24.56000137   2.80999994  58.20999908
H    24.97296524   2.05527210  58.87928772
H    20.00000000   2.46000004  60.50000000
H    19.09000015   0.65999997  55.86000061
H    21.48999977   0.79000002  55.45999908
H    23.71999931   1.71000004  55.89000320
H    22.37999916   3.01999998  59.72999954
H    14.17000008   1.43999994  59.59999847
H    25.20000076   2.75999999  57.31999969
H    24.50000000   3.84000015  58.59000397
S    13.64999962   0.14999999  55.06000137
C    10.93999958  -0.17000002  55.63999939
C    12.18000031   0.28000000  56.04000092
C    12.51000023   0.71999997  57.36000061
C    11.44999981   0.90999997  58.22999954
C    10.14000034   0.52999997  57.84999847
C     9.06999969   0.52999997  58.79000092
C     7.83999968  -0.01000000  58.47999954
C     7.55000019  -0.32999998  57.12999725
C     8.55000019  -0.44000000  56.18999863
C     9.85999966  -0.02000000  56.55000305
C    13.93000031   0.97999996  57.50999832
C    14.72000027   0.57999998  56.40999603
C    16.10999870   0.52999997  56.39999771
C     6.19999981  -0.90999997  56.77999878
H     5.63753796  -0.20514250  56.16769791
H    10.77999973  -0.48000002  54.61000061
H    11.56000042   1.18000007  59.27000046
H     9.28999996   0.93999994  59.77000427
H     7.09999990  -0.14000000  59.26000214
H     8.38999939  -0.94999999  55.24000168
H    16.50000000   0.28999999  55.40999985
H     5.64000034  -1.19000006  57.67000198
H     6.38000011  -1.84000003  56.23000336
S    13.68999958  -2.33999991  51.95000076
C    10.98999977  -2.63999987  52.84000015
C    12.34000015  -2.79999995  53.02000046
C    12.79999924  -3.28999996  54.27999878
C    11.92999935  -3.88999987  55.18000031
C    10.52999973  -3.84000015  54.99000168
C     9.59000015  -4.32999992  55.93999863
C     8.26000023  -4.40000010  55.61999893
C     7.76999998  -3.68999982  54.48999786
C     8.67000008  -3.03999996  53.68000031
C    10.07999992  -3.12000012  53.81999969
C    14.21000004  -2.98000002  54.47000122
C    14.80999947  -2.39999986  53.31999969
C    16.13000107  -1.97000003  53.34999847
C     6.30999994  -3.76999998  54.13999939
H     6.00429916  -3.32211256  53.19446182
H    10.52000046  -2.09000015  52.02999878
H    12.32999992  -4.46000004  56.00999832
H     9.96000004  -4.78999996  56.86000061
H     7.59999990  -4.90999985  56.31999969
H     8.31999969  -2.39999986  52.87000275
H    16.54000092  -1.63000000  52.39999771
H     6.07999992  -4.84000015  54.09000015
H     5.63000011  -3.37000012  54.91000366
S    17.53999901  -3.48000002  56.77999878
C    20.19000053  -2.69000006  56.16000366
C    18.86000061  -2.76999998  55.81999969
C    18.38999939  -2.13000011  54.62999725
C    19.27999878  -1.58000004  53.72000122
C    20.63999939  -1.50000000  54.09000015
C    21.54999924  -0.78000003  53.27000046
C    22.88999939  -0.75999999  53.56999969
C    23.38000107  -1.29999995  54.79000092
C    22.52000046  -1.95999992  55.63999939
C    21.14999962  -2.09999990  55.30000305
C    16.95999908  -2.27999997  54.43999863
C    16.38000107  -2.92000008  55.56000137
C    15.01999950  -3.22000003  55.58000183
C    24.87999916  -1.34000003  55.01999664
H    25.29376602  -1.26866078  56.02588272
H    20.56999969  -3.02999997  57.11999893
H    18.97999954  -1.19000006  52.75000000
H    21.24000168  -0.44000000  52.29000092
H    23.54999924  -0.55000001  52.74000168
H    22.67000008  -2.50999975  56.56000137
H    14.55000019  -3.81999993  56.36000061
H    25.43999863  -0.57999998  54.45999908
H    25.15999985  -2.31999993  54.61000061
