96

S    16.39000130   1.75000000  59.86000061
C    19.15999985   1.66999996  59.38000107
C    17.87999916   1.43000007  58.94000244
C    17.61000061   0.97999996  57.61000061
C    18.65999985   0.73000002  56.72999954
C    20.00000000   1.02999997  57.08000183
C    21.11999893   0.92000002  56.20999908
C    22.39999962   1.15999997  56.63999939
C    22.60999870   1.58000004  57.97999954
C    21.54999924   1.63000000  58.86000061
C    20.20000076   1.44999993  58.43999863
C    16.18999863   0.79000002  57.39999771
C    15.39000034   1.19999993  58.50000000
C    14.01000023   1.30999994  58.53000259
C    23.97000122   2.04999995  58.41999817
H    24.43258667   1.28139246  59.03915787
H    19.42000008   1.88999999  60.40999985
H    18.34000015   0.22000000  55.83000183
H    20.95000076   0.61000001  55.18000031
H    23.26000023   1.22000003  55.97000122
H    21.73999977   2.06999993  59.82999802
H    13.45000076   1.69000006  59.38000107
H    24.63000107   2.23000002  57.56000137
H    23.71000099   2.93000007  59.02000046
S    12.97999954   0.17000002  54.91000366
C    10.29999924  -0.08000001  55.63000107
C    11.56000042   0.34000003  55.97000122
C    11.89000034   1.00999999  57.18999863
C    10.86999989   1.29999995  58.08000183
C     9.55000019   0.96000004  57.70999908
C     8.55000019   1.14999998  58.69999695
C     7.25000000   0.76999998  58.44999695
C     6.91999960   0.05000000  57.27000427
C     7.88999987  -0.19000000  56.31999969
C     9.23999977   0.19000000  56.52999878
C    13.34000015   1.02999997  57.32999802
C    14.09999943   0.61000001  56.20999908
C    15.48999977   0.48000002  56.23000336
C     5.47999954  -0.34000003  57.01000214
H     5.03872490   0.35038191  56.29114914
H    10.11999989  -0.45000002  54.61999893
H    11.06999969   1.77999997  59.03999710
H     8.84000015   1.53999996  59.66999817
H     6.67000008   0.62000000  59.36000061
H     7.53000021  -0.55000001  55.35999680
H    16.01000023   0.09000000  55.35999680
H     4.76999998  -0.46999997  57.83000183
H     5.50000000  -1.36000013  56.59999847
S    16.94000053   2.22000003  53.80000305
C    19.70999908   2.15000010  53.31999969
C    18.42000008   1.99000001  52.85999680
C    18.12000084   1.69000006  51.49000168
C    19.15999985   1.38999999  50.63000107
C    20.48000145   1.65999997  51.04999924
C    21.56999969   1.56000006  50.14999771
C    22.86999893   1.94999993  50.40999985
C    23.12000084   2.38000011  51.73999786
C    22.09000015   2.56999993  52.63000107
C    20.78000069   2.06999993  52.39999771
C    16.69000053   1.65999997  51.20999908
C    15.92000008   2.00999999  52.36000061
C    14.53999996   2.10999990  52.34000397
C    24.53000069   2.70000005  52.18000031
H    24.81370354   2.29572201  53.15168381
H    19.81999969   2.50000000  54.34999847
H    18.97999954   1.15999997  49.58000183
H    21.35000038   1.22000003  49.13999939
H    23.69999886   1.89999998  49.72000122
H    22.29999924   2.98000002  53.61999893
H    13.96000004   2.37000012  53.22000122
H    25.22999954   2.21000004  51.50000000
H    24.61000061   3.78999996  52.27000427
S    13.52000046   0.87000000  48.75000000
C    10.88000107   0.41000003  49.48999786
C    12.10000038   0.96000004  49.80999756
C    12.38999939   1.57000005  51.06999969
C    11.39000034   1.69000006  52.01000214
C    10.11000061   1.15999997  51.70000076
C     9.01000023   1.38000000  52.57999802
C     7.73999977   0.96000004  52.28000259
C     7.48000050   0.32999998  51.03000259
C     8.52999973   0.04000000  50.18000031
C     9.84000015   0.52999997  50.44000244
C    13.82999992   1.74000001  51.18999863
C    14.60000038   1.42000008  50.04000092
C    15.98999977   1.29999995  50.06000137
C     6.09000015  -0.19000000  50.75000000
H     5.88331461  -0.14011046  49.68093872
H    10.76000023  -0.13000000  48.55999756
H    11.52999973   2.14000010  53.00000000
H     9.11000061   2.05999994  53.41999817
H     6.94999981   1.05999994  53.02000046
H     8.34999943  -0.44000000  49.22999954
H    16.47999954   1.07000005  49.12000275
H     5.36999989   0.28000000  51.43000031
H     5.98999977  -1.22000003  51.11999893
