96

S    16.28000069   1.79000008  60.04000092
C    18.98999977   1.71000004  59.34999847
C    17.68000031   1.44999993  59.00000000
C    17.32999992   1.03999996  57.68000031
C    18.35000038   0.56000000  56.86999893
C    19.70000076   0.88000000  57.15000153
C    20.76999855   0.62000000  56.25000000
C    22.09000015   0.82999998  56.58000183
C    22.39000130   1.41000009  57.84000015
C    21.38000107   1.80999994  58.68000031
C    20.00000000   1.58000004  58.36999893
C    15.88999939   1.00000000  57.51999664
C    15.19999981   1.26999998  58.73000336
C    13.81999969   1.29999995  58.87000275
C    23.78000069   1.93000007  58.13000107
H    24.29049301   1.27061272  58.83193207
H    19.27000046   1.99000001  60.35999680
H    18.13999939   0.31000000  55.84000015
H    20.50000000   0.16000001  55.30000305
H    22.84000015   0.56999999  55.84000015
H    21.56999969   2.14000010  59.69999695
H    13.40999985   1.44999993  59.86000061
H    24.27999878   1.99000001  57.15999985
H    23.71000099   2.92000008  58.59000397
S    12.61999989  -0.01000000  55.31999969
C     9.89999962   0.02000000  56.02000427
C    11.19999981   0.32000002  56.33999634
C    11.56000042   0.82999998  57.63000107
C    10.55999947   1.13999999  58.53000259
C     9.22999954   0.79000002  58.22000122
C     8.14999962   1.02999997  59.12000275
C     6.85999966   0.63000000  58.85000229
C     6.50000000  -0.06000000  57.65999603
C     7.55000019  -0.35999998  56.81000137
C     8.86999989   0.14000000  56.98999786
C    13.01000023   0.94999999  57.77999878
C    13.69999981   0.55000001  56.60999680
C    15.07999992   0.56000000  56.45999908
C     5.03999996  -0.29999998  57.36999893
H     4.78400946   0.06265283  56.37448120
H     9.72999954  -0.32000002  55.00999832
H    10.82999992   1.53999996  59.51000214
H     8.30999947   1.50999999  60.07999802
H     6.09000015   0.75000000  59.61000061
H     7.35000038  -0.78000003  55.83000183
H    15.65999985   0.25000000  55.59999847
H     4.32000017   0.17999999  58.04000092
H     4.73000002  -1.35000002  57.50000000
S    13.32999992  -2.15000010  52.15999985
C    10.62000084  -2.59999990  52.78999710
C    11.95000076  -2.70000005  53.13000107
C    12.43999958  -3.25999999  54.36000061
C    11.52999973  -3.75000000  55.27999878
C    10.14999962  -3.58000016  55.00000000
C     9.15999985  -4.03999996  55.90999985
C     7.82000017  -4.00000000  55.61000061
C     7.36999989  -3.45999980  54.36999893
C     8.28999996  -3.00000000  53.46000290
C     9.68000031  -3.10999990  53.72000122
C    13.88000011  -3.19000006  54.52000046
C    14.52999973  -2.61999989  53.39000320
C    15.88000107  -2.32999992  53.37999725
C     5.92999983  -3.19000006  54.01000214
H     5.56137276  -3.59407187  53.06716537
H    10.36000061  -2.00000000  51.91999817
H    11.87000084  -4.26999998  56.17000198
H     9.40999985  -4.53000021  56.84000015
H     7.11000013  -4.30000019  56.38000107
H     8.01000023  -2.48000002  52.55000305
H    16.32999992  -1.76999998  52.56000137
H     5.27999973  -3.53999996  54.82999802
H     5.75999975  -2.10999990  53.93000031
S    17.21999931  -3.74000025  56.86999893
C    19.86999893  -3.30000019  56.14999771
C    18.53999901  -3.03999996  55.90999985
C    18.09999847  -2.39999986  54.69999695
C    19.03000069  -1.77999997  53.88000107
C    20.39999962  -1.98000002  54.16999817
C    21.40999985  -1.59999990  53.23999786
C    22.72999954  -1.94999993  53.41999817
C    23.13999939  -2.70000005  54.55999756
C    22.20999908  -3.10999990  55.48999786
C    20.85000038  -2.73999977  55.30000305
C    16.68000031  -2.59999990  54.50000000
C    16.07999992  -3.30000019  55.58000183
C    14.73999977  -3.65999985  55.52000046
C    24.57999992  -3.03999996  54.87999725
H    25.03629875  -2.42684984  55.65713120
H    20.17000008  -4.02999973  56.90999985
H    18.64999962  -1.19999993  53.04000092
H    21.02000046  -1.08999991  52.36000061
H    23.44000053  -1.67999995  52.64999771
H    22.57999802  -3.71000004  56.31999969
H    14.32999992  -4.17000008  56.38000107
H    25.15999985  -3.09999990  53.95999908
H    24.56000137  -4.07000017  55.26000214
