96

S    18.06999969   1.61000001  60.30000305
C    20.76000023   1.93000007  59.41999817
C    19.44000053   1.61000001  59.18000031
C    19.05999947   1.25000000  57.84000015
C    19.98999977   1.25999999  56.81000137
C    21.35000038   1.47000003  57.11999893
C    22.37999916   1.43000007  56.12999725
C    23.69999886   1.64000010  56.45000076
C    24.07999992   1.95999992  57.78999710
C    23.12999916   2.10999990  58.76999664
C    21.77999878   1.80999994  58.44999695
C    17.61999893   1.04999995  57.76000214
C    16.93000031   1.31999993  58.96999741
C    15.53999996   1.44999993  59.02000046
C    25.43000031   2.59999990  57.97000122
H    25.89163589   2.02473164  58.77253342
H    21.07999992   2.20000005  60.43000031
H    19.68000031   0.97000003  55.80999756
H    22.13000107   1.43000007  55.06999969
H    24.40000153   1.87000012  55.65999985
H    23.28000069   2.40999985  59.80999756
H    15.10000038   1.80000007  59.94999695
H    26.01000023   2.71000004  57.04000092
H    25.12000084   3.63000011  58.15999985
S    14.45000076   0.74000001  55.28999710
C    11.72999954   0.46000001  55.94999695
C    13.01000023   0.79999995  56.31999969
C    13.35999966   1.18000007  57.65999603
C    12.31999969   1.31999993  58.55999756
C    10.98999977   1.01999998  58.18000031
C     9.86999989   1.05999994  59.06999969
C     8.61999989   0.59999996  58.74000168
C     8.32999992   0.13000000  57.42000198
C     9.35000038   0.14000000  56.49000168
C    10.67000008   0.46999997  56.88999939
C    14.80999947   1.24000001  57.84999847
C    15.53999996   0.92000002  56.68000031
C    16.90999985   0.71000004  56.59999847
C     6.94000006  -0.32000002  57.05999756
H     6.46863365   0.27992067  56.28153229
H    11.44000053   0.23000000  54.93000031
H    12.60000038   1.53999996  59.58000183
H    10.06999969   1.38999999  60.07999802
H     7.85000038   0.71000004  59.48999786
H     9.11999989  -0.31000000  55.52999878
H    17.30999947   0.61000001  55.59999847
H     6.30999994  -0.50000000  57.95000076
H     7.13000011  -1.35000002  56.72999954
S    18.46999931   2.59000015  53.70999908
C    21.07000160   3.02999997  52.95999908
C    19.86999893   2.45000005  52.62000275
C    19.52999878   2.00999999  51.30000305
C    20.52999878   2.06999993  50.34999847
C    21.84999847   2.48000002  50.68999863
C    22.89999962   2.47000003  49.73999786
C    24.18999863   2.84999990  50.02999878
C    24.44000053   3.38000011  51.32999802
C    23.43000031   3.45000005  52.27000427
C    22.10000038   3.05999994  51.97999954
C    18.09999847   1.80999994  51.17000198
C    17.40999985   2.13000011  52.36999893
C    16.02000046   2.15000010  52.49000168
C    25.86000061   3.65000010  51.77000046
H    26.25086403   2.98197913  52.53751373
H    21.37000084   3.35000014  53.95999908
H    20.45000076   1.50000000  49.43000031
H    22.55000114   2.01999998  48.81000137
H    24.99000168   2.57999992  49.34999847
H    23.68999863   3.75999975  53.27999878
H    15.65999985   2.46000004  53.46000290
H    26.54000092   3.63000011  50.90999985
H    25.84000015   4.69000006  52.11000061
S    14.81999969   1.41000009  48.81000137
C    12.10000038   1.33000004  49.45999908
C    13.38999939   1.59999990  49.85000229
C    13.78999901   1.86000001  51.19999695
C    12.76000023   1.95999992  52.11999893
C    11.40999985   1.80000007  51.70999908
C    10.34000015   1.79000008  52.64999771
C     9.04999924   1.51999998  52.25999832
C     8.63000011   1.39999998  50.90999985
C     9.65999985   1.28999996  50.00000000
C    11.02000046   1.42000008  50.38000107
C    15.22999954   1.84000003  51.37000275
C    15.93999958   1.58999991  50.17000198
C    17.31999969   1.46000004  50.06000137
C     7.23999977   0.93000001  50.56000137
H     6.77000427   1.66347814  49.90485764
H    11.87999916   1.16999996  48.40999985
H    13.09000015   1.82999992  53.13999939
H    10.55999947   2.04999995  53.68999863
H     8.27999973   1.42000008  53.01000214
H     9.46000004   0.93000001  48.99000168
H    17.79000092   1.24000001  49.09999847
H     6.51000023   0.74000001  51.37000275
H     7.48000050  -0.03000000  50.08999634
