96

S    17.02999878   1.49000001  59.92000198
C    19.68000031   1.62000000  59.13000107
C    18.39999962   1.23000002  58.81000137
C    18.06999969   0.71999997  57.51999664
C    19.05999947   0.64999998  56.56000137
C    20.38000107   1.02999997  56.90999985
C    21.47999954   0.82000005  56.03000259
C    22.77000046   1.01999998  56.45999908
C    23.06999969   1.76999998  57.63000107
C    22.03000069   2.10999990  58.46000290
C    20.72999954   1.61000001  58.18000031
C    16.61999893   0.55000001  57.47000122
C    15.92000008   0.94999999  58.63999939
C    14.52999973   0.93999994  58.68999863
C    24.48999786   2.14000010  58.02000046
H    24.98682785   1.41605031  58.66587830
H    19.73999977   2.11999989  60.10000229
H    18.76000023   0.27000001  55.59000015
H    21.25999832   0.34000003  55.07999802
H    23.57000160   0.81000000  55.75000000
H    22.11999893   2.69000006  59.36999893
H    14.06000042   1.19999993  59.62999725
H    25.05000114   2.28999996  57.09000015
H    24.53000069   3.03999996  58.62999725
S    13.40000057   0.20999999  54.94999695
C    10.70000076  -0.02000000  55.58000183
C    11.97000027   0.28999999  56.00000000
C    12.31999969   0.51999998  57.36000061
C    11.30000019   0.57999998  58.29000092
C     9.96000004   0.32999998  57.90000153
C     8.93000031   0.37000000  58.88000107
C     7.62000036   0.14999999  58.54999924
C     7.31999969  -0.17999999  57.19999695
C     8.30000019  -0.37000000  56.25000000
C     9.63999939  -0.00000000  56.52999878
C    13.76000023   0.63000000  57.56999969
C    14.47000027   0.38000000  56.36000061
C    15.85999966   0.25999999  56.33999634
C     5.86000013  -0.28000000  56.84000015
H     5.63941431   0.44579831  56.05727386
H    10.54999924  -0.44000000  54.59000015
H    11.51000023   0.69999999  59.34999847
H     9.19999981   0.75000000  59.86999893
H     6.85999966   0.39999998  59.29000092
H     8.07999992  -0.63000000  55.21999741
H    16.31000137   0.13000000  55.35999680
H     5.26000023  -0.02000000  57.72999573
H     5.71000004  -1.33000004  56.58000183
S    13.99000072  -2.09000015  52.23999786
C    11.32999992  -2.59999990  53.06000137
C    12.69000053  -2.70000005  53.27999878
C    13.22000027  -3.25000000  54.48999786
C    12.36999989  -3.97000027  55.31000137
C    10.97000027  -3.88000011  55.08999634
C    10.00000000  -4.34999990  56.02000427
C     8.64999962  -4.28999996  55.79000092
C     8.15999985  -3.73000002  54.59000015
C     9.01000023  -3.08999991  53.72000122
C    10.40999985  -3.14000010  53.99000168
C    14.65000057  -3.01999998  54.61999893
C    15.21999931  -2.36000013  53.48999786
C    16.57999992  -2.15000010  53.30999756
C     6.71000004  -4.00999975  54.26000214
H     6.36931896  -3.71900129  53.26634216
H    10.95000076  -2.15000010  52.15000153
H    12.71999931  -4.38000011  56.25000000
H    10.42000008  -4.77999973  56.91999817
H     7.90999985  -4.73000002  56.45999908
H     8.73999977  -2.64999986  52.76000214
H    17.02999878  -1.74000001  52.42000198
H     6.44999981  -5.07000017  54.36999893
H     6.10000038  -3.52999973  55.02999878
S    18.11000061  -3.55999994  56.69000244
C    20.72999954  -2.94000006  55.86999893
C    19.37000084  -2.82000017  55.68999863
C    18.81999969  -2.29999995  54.47000122
C    19.65999985  -1.76999998  53.50999832
C    21.05999947  -1.87999988  53.68999863
C    21.87000084  -1.29999995  52.67000198
C    23.22000122  -1.18000007  52.94000244
C    23.78000069  -1.65999997  54.15999985
C    23.02999878  -2.31999993  55.10000229
C    21.63000107  -2.45000005  54.88999939
C    17.38000107  -2.49000001  54.40999985
C    16.81999969  -3.15000010  55.54000092
C    15.47000027  -3.40000010  55.68999863
C    25.26000023  -1.50000000  54.43000031
H    25.54419136  -2.07548833  55.31099319
H    21.21999931  -3.30000019  56.77000046
H    19.23999977  -1.36999989  52.58999634
H    21.44000053  -0.99000001  51.72000122
H    23.78999901  -0.65999997  52.18999863
H    23.42000008  -2.64999986  56.04999924
H    15.08999920  -3.93000007  56.56000137
H    25.52999878  -0.44000000  54.54000092
H    25.79999924  -1.86000001  53.54999924
