96

S    16.72999954   0.87000000  60.20999908
C    19.36000061   1.42000008  59.52000046
C    18.15000153   0.86000001  59.15999985
C    17.79999924   0.41000003  57.84000015
C    18.82999992   0.32999998  56.91999817
C    20.15999985   0.71999997  57.25000000
C    21.18999863   0.50999999  56.29000092
C    22.42000198   1.01999998  56.63000107
C    22.65000153   1.69000006  57.85999680
C    21.68999863   1.75999999  58.85000229
C    20.38000107   1.30999994  58.54000092
C    16.38000107   0.14000000  57.70000076
C    15.65000057   0.45000002  58.87000275
C    14.26000023   0.41999999  58.88999939
C    24.05999947   2.04999995  58.29000092
H    24.40874863   1.35249996  59.05155563
H    19.48999977   1.90999997  60.47999954
H    18.64999962  -0.31000000  56.05999756
H    20.94000053   0.23000000  55.27000046
H    23.19000053   0.86000001  55.89000320
H    21.84999847   2.22000003  59.81999969
H    13.71999931   0.64999998  59.80999756
H    24.79000092   2.04999995  57.47000122
H    24.04999924   3.07999992  58.64999771
S    13.30999947  -0.09999999  55.02999878
C    10.57999992  -0.39000002  55.59999847
C    11.84999943  -0.09999999  56.04000092
C    12.13999939   0.09999999  57.43000031
C    11.05999947   0.11000000  58.27999878
C     9.71000004  -0.06000000  57.88999939
C     8.60000038   0.01000000  58.77999878
C     7.34000015  -0.38000000  58.39000320
C     7.23000002  -0.94999999  57.09000015
C     8.22000027  -0.93000001  56.13999939
C     9.48999977  -0.41999999  56.51000214
C    13.56999969   0.22000000  57.69000244
C    14.30999947   0.04000000  56.49000168
C    15.69000053  -0.11000000  56.50000000
C     5.82999992  -1.39999998  56.75000000
H     5.24430084  -0.75715953  56.09287643
H    10.53999996  -0.94999999  54.65999985
H    11.18999958   0.28000000  59.34999847
H     8.78000069   0.24000001  59.81999969
H     6.51000023  -0.19000000  59.06000137
H     8.05000019  -1.22000003  55.11000061
H    16.28000069  -0.38000000  55.63000107
H     5.33999968  -1.50999999  57.72999573
H     5.78000021  -2.39999986  56.31000137
S    17.46000099   1.80999994  54.08000183
C    20.12000084   2.00000000  53.34000015
C    18.85000038   1.62000000  52.97999954
C    18.47999954   1.24000001  51.65000153
C    19.51000023   1.19000006  50.72999954
C    20.86999893   1.41000009  51.05999756
C    21.91999817   1.31999993  50.11000061
C    23.23999786   1.54999995  50.44000244
C    23.52999878   1.98000002  51.76000214
C    22.53999901   2.04999995  52.70999908
C    21.15999985   1.85000002  52.39999771
C    17.04000092   1.13000000  51.49000168
C    16.39000130   1.50999999  52.70000076
C    15.00000000   1.49000001  52.80000305
C    24.94999886   2.31999993  52.18000031
H    25.33586121   1.86982906  53.09463501
H    20.45999908   2.39999986  54.29000092
H    19.29000092   0.90999997  49.69999695
H    21.68999863   1.12000000  49.06999969
H    24.04000092   1.33000004  49.73999786
H    22.70000076   2.40999985  53.72000122
H    14.52000046   1.66999996  53.75999832
H    25.53999901   2.04999995  51.30000305
H    25.00000000   3.40999985  52.25000000
S    13.89999962   0.43000001  49.09000015
C    11.23999977   0.23000000  49.73999786
C    12.51000023   0.50999999  50.19000244
C    12.82999992   0.99000001  51.50000000
C    11.73999977   1.22000003  52.30999756
C    10.42000008   0.83999997  51.97000122
C     9.34000015   1.03999996  52.88000107
C     8.05999947   0.65999997  52.55000305
C     7.82000017   0.07000000  51.27999878
C     8.85000038  -0.17999999  50.40000153
C    10.14999962   0.34000003  50.63999939
C    14.27000046   1.14999998  51.65000153
C    14.94999981   0.92000002  50.43000031
C    16.34000015   0.82999998  50.31999969
C     6.42000008  -0.34000003  50.86999893
H     5.97932529   0.40630358  50.20898819
H    11.00999928  -0.29999998  48.81999969
H    11.87000084   1.74000001  53.25000000
H     9.56999969   1.46000004  53.86000061
H     7.32999992   0.64999998  53.36000061
H     8.64999962  -0.73000002  49.48999786
H    16.79999924   0.32999998  49.47000122
H     5.71000004  -0.50999999  51.69000244
H     6.44000006  -1.30999994  50.35999680
