96

S    17.46999931   2.16999984  59.91000366
C    20.20000076   2.05999994  59.40999985
C    18.92000008   1.84000003  58.95000076
C    18.56999969   1.51999998  57.60000229
C    19.62000084   1.39999998  56.70999908
C    20.92000008   1.84000003  57.06999969
C    22.04999924   1.69000006  56.22000122
C    23.34000015   2.10999990  56.46999741
C    23.52000046   2.49000001  57.83000183
C    22.53999901   2.56000018  58.79000092
C    21.22999954   2.15000010  58.43999863
C    17.13999939   1.36000013  57.42000198
C    16.39000130   1.77999997  58.54999924
C    15.01000023   1.86000001  58.43999863
C    24.96999931   2.79000020  58.13000107
H    25.42424393   2.04475808  58.78297806
H    20.27000046   2.47000003  60.41999817
H    19.40000153   0.87000000  55.79000092
H    21.86000061   1.19000006  55.27000046
H    24.21999931   1.98000002  55.84999847
H    22.73999977   2.82000017  59.82999802
H    14.52999973   2.09000015  59.38999939
H    25.52999878   2.86999989  57.18999863
H    25.02000046   3.71000004  58.73000336
S    14.00000000   0.65999997  54.79000092
C    11.28999901   0.41999999  55.44000244
C    12.56000042   0.79000002  55.81999969
C    12.89999962   1.26999998  57.12999725
C    11.95000076   1.36999989  58.13000107
C    10.70000076   0.78000003  57.83000183
C     9.67000008   0.73000002  58.81000137
C     8.36999989   0.32999998  58.60000229
C     8.09000015  -0.17999999  57.30999756
C     9.04999924  -0.19999999  56.32999802
C    10.36000061   0.34000003  56.50000000
C    14.32000065   1.51999998  57.27000427
C    15.06999969   1.10000002  56.13999939
C    16.44000053   0.96000004  56.26999664
C     6.67000008  -0.52999997  56.91999817
H     6.32295418   0.03660494  56.05592728
H    10.97000027   0.05000000  54.47000122
H    12.15000057   1.76999998  59.12000275
H     9.92000008   1.05999994  59.81999969
H     7.57999992   0.39000002  59.34999847
H     8.82999992  -0.64000005  55.35999680
H    17.04000092   0.59999996  55.44000244
H     5.98000002  -0.41000003  57.76000214
H     6.67999983  -1.61000001  56.72000122
S    18.17000008   2.76999998  53.92000198
C    20.89999962   2.84999990  53.40000153
C    19.65999985   2.37000012  53.04000092
C    19.38999939   1.87999988  51.72000122
C    20.43000031   1.77999997  50.80999756
C    21.73999977   2.20000005  51.14999771
C    22.84000015   2.06999993  50.26000214
C    24.05999947   2.61999989  50.59999847
C    24.21999931   3.23000002  51.88000107
C    23.22000122   3.30000019  52.81000137
C    21.94999886   2.77999997  52.44999695
C    17.97000122   1.87000012  51.44000244
C    17.17000008   2.30999994  52.52999878
C    15.77999973   2.30999994  52.50999832
C    25.63999939   3.53999996  52.29000092
H    26.05352974   2.84127665  53.01724243
H    21.04999924   3.51999998  54.23999786
H    20.26000023   1.36000013  49.81999969
H    22.72999954   1.65999997  49.26000214
H    24.86000061   2.57999992  49.87999725
H    23.39999962   3.68999982  53.81000137
H    15.27999973   2.76999998  53.36000061
H    26.37000084   3.60000014  51.46999741
H    25.66999817   4.56999969  52.67000198
S    14.91000080   0.81000000  48.93000031
C    12.15000057   0.82999998  49.43999863
C    13.42000008   1.24000001  49.79000092
C    13.73000050   1.74000001  51.10000229
C    12.71999931   2.07999992  51.97999954
C    11.39999962   1.64000010  51.68000031
C    10.38000011   1.70000005  52.67000198
C     9.15999985   1.19000006  52.31999969
C     8.85999966   0.56999999  51.07999802
C     9.85999966   0.46000001  50.13999939
C    11.14999962   0.97999996  50.43000031
C    15.15999985   1.89999998  51.32999802
C    15.93000031   1.50000000  50.20999908
C    17.30999947   1.50000000  50.26000214
C     7.48000050   0.09000000  50.70000076
H     6.96068859   0.71601927  49.97438812
H    12.02999973   0.25999999  48.52000427
H    12.93000031   2.68000007  52.85999680
H    10.59000015   2.21000004  53.61000061
H     8.40999985   1.26999998  53.11000061
H     9.77999973   0.01000000  49.15000153
H    17.97999954   1.43000007  49.40000153
H     6.80999994   0.09000000  51.56999969
H     7.59000015  -0.97000003  50.44000244
