96

S    17.01000023   1.08999991  60.13999939
C    19.67000008   1.71000004  59.61999893
C    18.45999908   1.28000009  59.13999939
C    18.20000076   0.85000002  57.80000305
C    19.27000046   0.93999994  56.91999817
C    20.55000114   1.36000013  57.36000061
C    21.64999962   1.34000003  56.45000076
C    22.88000107   1.81999993  56.84000015
C    23.05999947   2.42000008  58.11999893
C    21.98999786   2.46000004  58.97999573
C    20.72000122   1.90999997  58.68000031
C    16.77000046   0.74000001  57.54000092
C    15.98999977   0.96000004  58.69999695
C    14.60000038   0.96000004  58.81000137
C    24.47999954   2.64999986  58.57999802
H    24.84982681   1.99569237  59.36943436
H    19.72999954   2.09000015  60.63999939
H    19.05999947   0.69000000  55.89000320
H    21.37000084   0.99000001  55.45999908
H    23.68999863   1.75999999  56.12999725
H    22.25000000   2.82999992  59.98000336
H    13.96999931   1.08000004  59.68999863
H    25.17000008   2.45000005  57.75000000
H    24.63999939   3.71000004  58.82999802
S    13.59000015   0.09999999  55.13000107
C    10.95999908  -0.41999999  55.76000214
C    12.18000031   0.04000000  56.19999695
C    12.46999931   0.46999997  57.52999878
C    11.49000072   0.34000003  58.50000000
C    10.18000031  -0.02000000  58.08000183
C     9.10000038   0.01000000  59.01000214
C     7.81000042  -0.34000003  58.67000198
C     7.55999994  -0.73000002  57.32999802
C     8.59000015  -0.81000000  56.42000198
C     9.90999985  -0.38000000  56.72000122
C    13.92000008   0.64000005  57.63000107
C    14.70000076   0.48000002  56.45999908
C    16.09000015   0.46000001  56.35000229
C     6.12999964  -1.11000001  57.00000000
H     5.77210522  -0.43000019  56.22694778
H    10.92000008  -0.88999999  54.78000259
H    11.72999954   0.48000002  59.54999924
H     9.22999954   0.37000000  60.02999878
H     6.97000027  -0.19000000  59.34000015
H     8.34000015  -1.16999996  55.41999817
H    16.61000061   0.14999999  55.45000076
H     5.42000008  -1.02999997  57.83000183
H     6.01999998  -2.16999984  56.70999908
S    14.19000053  -2.04999995  52.04000092
C    11.50000000  -2.76999998  52.55000305
C    12.82999992  -2.82000017  52.87000275
C    13.22999954  -3.37000012  54.13999939
C    12.28000069  -4.01999998  54.91000366
C    10.90999985  -3.95000005  54.58000183
C     9.94000053  -4.51000023  55.45999908
C     8.60000038  -4.42999983  55.15999603
C     8.18000031  -3.68000007  54.02999878
C     9.07999992  -3.19000006  53.11000061
C    10.47000027  -3.30000019  53.37999725
C    14.65000057  -3.16000009  54.38999939
C    15.29000092  -2.38000011  53.39000320
C    16.60000038  -1.93000007  53.46000290
C     6.71000004  -3.45999980  53.75000000
H     6.41726398  -3.80271578  52.75755310
H    11.21999931  -2.33999991  51.59000015
H    12.65999985  -4.61000013  55.73999786
H    10.34000015  -4.96000004  56.37000275
H     7.90999985  -4.63999987  55.97000122
H     8.75000000  -2.56999993  52.27000427
H    17.05000114  -1.34000003  52.68000031
H     6.01999998  -3.98000002  54.43000031
H     6.54999971  -2.38000011  53.81999969
S    17.84000015  -3.37000012  56.97000122
C    20.45000076  -2.66999984  56.56999969
C    19.17000008  -2.61999989  56.06999969
C    18.77000046  -2.09999990  54.79999924
C    19.76000023  -1.50999999  54.03999710
C    21.12999916  -1.70000005  54.36000061
C    22.23999977  -1.24000001  53.60000229
C    23.54000092  -1.22000003  54.03999710
C    23.85999870  -1.90999997  55.24000168
C    22.81999969  -2.43000007  55.97000122
C    21.44000053  -2.22000003  55.65999985
C    17.35000038  -2.36000013  54.55999756
C    16.73999977  -3.09999990  55.61000061
C    15.44999981  -3.60000014  55.44000244
C    25.29999924  -2.10999990  55.63999939
H    25.52013588  -1.30046833  56.33591461
H    20.55999947  -3.19999981  57.50999832
H    19.56999969  -1.02999997  53.08000183
H    21.98999786  -0.82000005  52.62000275
H    24.27000046  -0.75999999  53.37999725
H    23.00000000  -3.00000000  56.88000107
H    14.98000050  -4.25000000  56.17000198
H    25.93000031  -2.11999989  54.73999786
H    25.43000031  -3.10999990  56.07999802
