96

S    17.43000031   1.95999992  60.02999878
C    20.17000008   1.93000007  59.38999939
C    18.86999893   1.66999996  59.03999710
C    18.57999992   1.13000000  57.74000168
C    19.59000015   0.94999999  56.81999969
C    20.93000031   1.13999999  57.25999832
C    22.04999924   0.93000001  56.39999771
C    23.34000015   1.25999999  56.73999786
C    23.64999962   1.98000002  57.93000031
C    22.60000038   2.16999984  58.79000092
C    21.28000069   1.71000004  58.53000259
C    17.14999962   0.87000000  57.58999634
C    16.40999985   1.38999999  58.68999863
C    15.03999901   1.57000005  58.56999969
C    25.06000137   2.33999991  58.30999756
H    25.42982864   1.68569255  59.09943390
H    20.32999992   2.37000012  60.37000275
H    19.37999916   0.61000001  55.80999756
H    21.84999847   0.62000000  55.38000107
H    24.04999924   1.13000000  55.93999863
H    22.72999954   2.63999987  59.77000427
H    14.47999954   2.16000009  59.29000092
H    25.73999786   2.27999997  57.44999695
H    25.09000015   3.40999985  58.56999969
S    14.09000015   0.28000000  54.92000198
C    11.36999989   0.13000000  55.52000046
C    12.63000011   0.54000002  55.89000320
C    12.92000008   0.92000002  57.23999786
C    11.90999985   1.04999995  58.16999817
C    10.59999943   0.63000000  57.83000183
C     9.55999947   0.50000000  58.80000305
C     8.28999996   0.04000000  58.55999756
C     8.05000019  -0.32000002  57.21000290
C     9.02999973  -0.34000003  56.24000168
C    10.34999943   0.11000000  56.51000214
C    14.34999943   1.02999997  57.48000336
C    15.08999920   0.67000002  56.32999802
C    16.46999931   0.50999999  56.43000031
C     6.65999985  -0.69999999  56.76000214
H     6.26963520  -0.18897671  55.87990570
H    11.10999966  -0.39000002  54.59999847
H    12.15000057   1.07000005  59.22999954
H     9.81999969   0.82999998  59.79999924
H     7.57999992   0.08000001  59.38000107
H     8.76000023  -0.64999998  55.24000168
H    17.13000107   0.34000003  55.58000183
H     6.05000019  -0.50000000  57.64999771
H     6.61000013  -1.75999999  56.45000076
S    14.52999973  -1.80000007  51.98999786
C    11.79999924  -2.40999985  52.56999969
C    13.12999916  -2.37000012  52.93000031
C    13.53000069  -2.99000001  54.15000153
C    12.61999989  -3.52999973  55.05000305
C    11.26000023  -3.54999995  54.65000153
C    10.25000000  -4.19999981  55.41999817
C     8.94999981  -4.35999966  55.01999664
C     8.52000046  -3.63000011  53.88000107
C     9.44999981  -3.12000012  53.01000214
C    10.81999969  -3.00000000  53.40000153
C    14.96999931  -2.96999979  54.34999847
C    15.64000034  -2.45000005  53.20999908
C    17.01000023  -2.23000002  53.15000153
C     7.05999947  -3.47000003  53.50999832
H     6.81756449  -4.28287077  52.82547760
H    11.44000053  -2.09000015  51.59000015
H    12.90999985  -3.88999987  56.03000259
H    10.65999985  -4.85000038  56.18999863
H     8.23000050  -4.92000008  55.61000061
H     9.13000011  -2.71000004  52.04999924
H    17.46999931  -1.87999988  52.22999954
H     6.42000008  -3.42999983  54.40000153
H     6.90000010  -2.57999992  52.88999939
S    18.12999916  -3.48000002  56.81999969
C    20.81000137  -2.84000015  56.31999969
C    19.50000000  -2.86000013  55.89000320
C    19.14999962  -2.34999990  54.59999847
C    20.12000084  -1.81999993  53.76999664
C    21.45000076  -1.67999995  54.23999786
C    22.46999931  -1.18000007  53.37999725
C    23.80000114  -1.28000009  53.73000336
C    24.14999962  -1.95999992  54.93000031
C    23.19000053  -2.36000013  55.84000015
C    21.80999947  -2.23000002  55.52000046
C    17.73999977  -2.56000018  54.29999924
C    17.10000038  -3.16000009  55.40999985
C    15.72999954  -3.40000010  55.44000244
C    25.59999847  -2.23000002  55.21999741
H    25.83437157  -1.78256130  56.18590164
H    21.18999863  -3.38000011  57.18000031
H    19.76000023  -1.47000003  52.81000137
H    22.09000015  -0.76999998  52.44999695
H    24.60000038  -0.90000004  53.09999847
H    23.47999954  -2.86000013  56.76000214
H    15.25000000  -3.82999992  56.31999969
H    26.12999916  -1.81999993  54.36000061
H    25.69999886  -3.31999993  55.22999573
