96

S    16.87000084   1.87999988  59.82999802
C    19.55000114   1.85000002  59.22000122
C    18.29000092   1.43999994  58.86000061
C    17.87999916   0.93999994  57.57999802
C    18.89999962   0.78000003  56.65999985
C    20.22000122   1.19999993  56.95999908
C    21.27000046   1.08000004  56.00000000
C    22.55000114   1.43999994  56.36000061
C    22.88000107   2.11999989  57.56000137
C    21.90000153   2.19000006  58.52000427
C    20.56999969   1.76999998  58.22999954
C    16.44000053   0.81000000  57.43000031
C    15.75000000   1.26999998  58.57999802
C    14.37000084   1.36000013  58.67000198
C    24.27000046   2.54999995  57.97000122
H    24.84568214   1.92456543  58.65229416
H    19.80999947   2.23000002  60.20000076
H    18.63000107   0.34000003  55.70999908
H    21.02000046   0.55000001  55.08999634
H    23.31999969   1.13999999  55.65000153
H    22.06000137   2.59000015  59.52000046
H    13.92000008   1.57000005  59.64000320
H    24.84999847   2.87999988  57.09999847
H    24.04999924   3.45999980  58.54000092
S    13.21000004   0.32999998  55.00000000
C    10.50000000   0.09999999  55.70000076
C    11.80999947   0.32999998  56.07999802
C    12.20999908   0.71999997  57.39999771
C    11.17000008   0.92000002  58.29999924
C     9.85000038   0.56000000  57.97000122
C     8.76000023   0.71000004  58.88000107
C     7.44999981   0.44000000  58.59000397
C     7.11000013   0.14000000  57.23999786
C     8.07999992   0.01000000  56.27999878
C     9.44999981   0.14000000  56.65000153
C    13.63000011   0.97999996  57.54000092
C    14.32000065   0.71000004  56.32999802
C    15.70000076   0.51999998  56.27999878
C     5.68000031  -0.02000000  56.77000046
H     5.42441797   0.87453836  56.20204163
H    10.15999985  -0.28999999  54.75000000
H    11.43000031   1.28000009  59.29000092
H     8.97999954   1.19999993  59.82999802
H     6.67999983   0.61000001  59.34000015
H     7.69000006  -0.16000001  55.27999878
H    16.29999924   0.29999998  55.40000153
H     5.07000017  -0.14000000  57.67000198
H     5.58000040  -0.94999999  56.18999863
S    14.44000053  -1.79000008  51.84000015
C    11.75000000  -2.14000010  52.67000198
C    13.09999943  -2.38000011  52.84000015
C    13.60000038  -3.00000000  54.02999878
C    12.69000053  -3.51000023  54.93000031
C    11.28999901  -3.42000008  54.72999954
C    10.34999943  -4.05000019  55.58000183
C     9.01000023  -3.89999986  55.31000137
C     8.52000046  -3.12999988  54.22000122
C     9.42000008  -2.61000013  53.30999756
C    10.80999947  -2.73999977  53.55999756
C    15.05000019  -2.89000010  54.15000153
C    15.65000057  -2.24000001  53.04999924
C    16.98999977  -1.87000012  53.09999847
C     7.04999971  -2.84000015  54.09999847
H     6.68049574  -3.20239830  53.14070892
H    11.44999981  -1.61000001  51.77999878
H    13.20000076  -4.13000011  55.66999817
H    10.80999947  -4.69999981  56.31999969
H     8.28999996  -4.38000011  55.97000122
H     9.11999989  -1.99000001  52.47000122
H    17.45000076  -1.39999998  52.22999954
H     6.38999987  -3.05000019  54.94999695
H     6.94999981  -1.75000000  53.97999573
S    18.32999992  -3.25999999  56.56000137
C    20.95999908  -2.93000007  55.90999985
C    19.65999985  -2.69000006  55.52000046
C    19.23999977  -2.26999998  54.22000122
C    20.17999840  -1.86000001  53.29000092
C    21.54000092  -1.93000007  53.68000031
C    22.56000137  -1.39999998  52.84000015
C    23.87000084  -1.33000004  53.23999786
C    24.20999908  -1.69000006  54.56999969
C    23.23999786  -2.21000004  55.40000153
C    21.87999916  -2.34999990  55.00999832
C    17.79000092  -2.32999992  54.15000153
C    17.14999962  -2.86999989  55.28999710
C    15.81999969  -3.25000000  55.27000046
C    25.55999947  -1.28000009  55.12000275
H    26.08732605  -1.91421556  55.83260345
H    21.32999802  -3.31999993  56.86000061
H    19.93999863  -1.43000007  52.31999969
H    22.29000092  -1.00000000  51.86000061
H    24.61000061  -0.88999999  52.56999969
H    23.52999878  -2.50000000  56.40999603
H    15.27999973  -3.68999982  56.11000061
H    25.38000107  -0.25999999  55.47999954
H    26.12999916  -1.13999999  54.19000244
