96

S    17.42000008   2.34999990  59.69999695
C    20.13999939   2.11999989  59.18000031
C    18.85000038   1.88999999  58.75999832
C    18.53000069   1.50000000  57.42000198
C    19.55000114   1.22000003  56.52999878
C    20.90999985   1.38999999  56.90000153
C    21.97999954   1.25000000  55.97000122
C    23.26999855   1.56000006  56.31999969
C    23.52000046   2.11999989  57.60000229
C    22.50999832   2.22000003  58.53000259
C    21.15999985   1.85000002  58.23999786
C    17.09000015   1.53999996  57.18000031
C    16.39000130   2.13000011  58.27000046
C    15.00000000   2.19000006  58.27000046
C    24.93999863   2.57999992  57.77999878
H    25.45060158   1.91338122  58.47498322
H    20.43000031   2.56000018  60.13000107
H    19.32999992   1.00999999  55.48999786
H    21.80999947   1.12000000  54.89999771
H    24.05999947   1.51999998  55.58000183
H    22.89999962   2.57999992  59.47999954
H    14.46000004   2.31999993  59.20000076
H    25.40999985   2.59000015  56.79000092
H    24.86000061   3.61000013  58.13999939
S    13.88000011   0.79000002  54.75000000
C    11.28000069   0.20999999  55.66999817
C    12.48999977   0.82999998  55.84999847
C    12.88000011   1.30999994  57.15000153
C    11.92999935   1.26999998  58.15999985
C    10.60999966   0.82000005  57.97000122
C     9.61000061   1.00000000  58.96999741
C     8.34000015   0.57999998  58.64999771
C     8.05999947  -0.09999999  57.43000031
C     9.02000046  -0.35999998  56.47999573
C    10.31000042   0.20999999  56.70000076
C    14.27999973   1.67999995  57.18000031
C    15.01000023   1.30999994  56.02000427
C    16.39999962   1.24000001  56.00999832
C     6.61999989  -0.46000001  57.14000320
H     6.22063637   0.28167549  56.44824600
H    11.13000011  -0.23000000  54.68999863
H    12.09000015   1.50000000  59.20999908
H     9.77000046   1.49000001  59.93000031
H     7.57000017   1.07000005  59.23999786
H     8.69999981  -0.74000001  55.52000046
H    16.90999985   0.83999997  55.13000107
H     5.98999977  -0.41999999  58.02999878
H     6.57999992  -1.44999993  56.69000244
S    14.40000057  -1.43000007  51.81000137
C    11.73999977  -1.90999997  52.63999939
C    13.09999943  -2.02999997  52.84999847
C    13.53000069  -2.49000001  54.13999939
C    12.63000011  -2.99000001  55.06000137
C    11.25000000  -3.02999997  54.78000259
C    10.29999924  -3.72000003  55.58000183
C     9.03999996  -4.02999973  55.13999939
C     8.60999966  -3.40000010  53.94000244
C     9.43000031  -2.64999986  53.13999939
C    10.78999996  -2.48000002  53.53000259
C    14.98000050  -2.33999991  54.26000214
C    15.57000065  -1.80999994  53.08000183
C    16.90999985  -1.43999994  53.08000183
C     7.13000011  -3.40999985  53.62999725
H     6.83106422  -2.75518823  52.81148529
H    11.54999924  -1.38000000  51.70999908
H    13.02999973  -3.51999998  55.91999817
H    10.72999954  -4.11000013  56.50000000
H     8.25000000  -4.48999977  55.72000122
H     9.15000057  -2.32999992  52.14000320
H    17.30999947  -1.04999995  52.15000153
H     6.86999989  -4.44000006  53.34000015
H     6.61000013  -3.24000001  54.58000183
S    18.36000061  -3.12999988  56.44000244
C    20.98999977  -2.56999993  55.70000076
C    19.63999939  -2.38000011  55.47000122
C    19.11999893  -1.64000010  54.36000061
C    20.03999901  -1.01999998  53.53000259
C    21.42999840  -1.13000000  53.74000168
C    22.37999916  -0.68000007  52.77000046
C    23.72999954  -0.82000005  52.97000122
C    24.20999908  -1.39999998  54.18000031
C    23.31000137  -1.94999993  55.06999969
C    21.90999985  -1.93000007  54.82999802
C    17.67000008  -1.74000001  54.20999908
C    17.15999985  -2.47000003  55.31999969
C    15.77999973  -2.61999989  55.38000107
C    25.63999939  -1.16999996  54.61000061
H    25.90188789  -1.55929399  55.59385300
H    21.45999908  -3.07999992  56.53999710
H    19.68000031  -0.55000001  52.61000061
H    21.94999886  -0.22000000  51.88999939
H    24.37999916  -0.16000001  52.39999771
H    23.64999962  -2.38999987  56.00000000
H    15.27999973  -3.09999990  56.20999908
H    25.76000023  -0.09000000  54.72000122
H    26.35000038  -1.43999994  53.82999802
