96

S    17.56000137   2.15000010  59.78000259
C    20.28000069   2.40999985  59.06000137
C    18.98999977   2.05999994  58.73000336
C    18.59000015   1.66999996  57.41000366
C    19.57999992   1.53999996  56.45999908
C    20.94000053   1.84000003  56.70000076
C    21.94999886   1.64000010  55.70999908
C    23.25000000   1.86000001  56.11000061
C    23.57000160   2.27999997  57.42000198
C    22.60999870   2.51999998  58.37999725
C    21.25000000   2.27999997  58.04000092
C    17.14999962   1.51999998  57.25999832
C    16.44000053   1.74000001  58.46000290
C    15.05000019   1.72999990  58.50999832
C    25.00000000   2.50999975  57.85999680
H    25.27097893   1.85394537  58.68719864
H    20.46999931   2.70000005  60.08999634
H    19.37999916   1.19000006  55.45000076
H    21.80000114   1.21000004  54.72999954
H    24.04000092   1.58999991  55.41999817
H    22.76000023   2.82000017  59.40999985
H    14.53999996   1.92000008  59.45000076
H    25.68000031   2.20000005  57.04999924
H    25.27000046   3.55999994  58.02000046
S    14.09999943   0.56999999  54.78000259
C    11.36999989   0.32000002  55.38999939
C    12.64000034   0.68000007  55.77999878
C    12.96000004   1.21000004  57.06999969
C    11.97999954   1.24000001  58.04999924
C    10.65000057   0.92000002  57.68000031
C     9.59999943   0.97000003  58.63999939
C     8.36999989   0.45000002  58.29999924
C     8.01000023   0.17000002  56.95999908
C     9.02999973  -0.02000000  56.05999756
C    10.36000061   0.35999998  56.38000107
C    14.37999916   1.36000013  57.34000397
C    15.10000038   0.97000003  56.18000031
C    16.47999954   1.13000000  56.09000397
C     6.57000017  -0.22000000  56.66999817
H     6.14804745   0.19480073  55.75457764
H    11.18999958   0.20999999  54.33000183
H    12.17000008   1.56000006  59.06999969
H     9.90999985   1.23000002  59.65000153
H     7.72000027   0.23000000  59.15000153
H     8.69000053  -0.44000000  55.12000275
H    17.13999939   1.01999998  55.24000168
H     5.98000002   0.16000001  57.51999664
H     6.61999989  -1.30999994  56.65000153
S    18.09999847   2.76999998  53.54999924
C    20.79999924   2.89999986  52.90999985
C    19.52999878   2.57999992  52.50000000
C    19.27999878   1.97000003  51.23000336
C    20.35000038   1.67999995  50.40000153
C    21.65999985   2.11999989  50.70999908
C    22.70999908   2.11999989  49.75999832
C    23.92999840   2.70000005  50.06000137
C    24.18999863   3.25999999  51.32999802
C    23.13999939   3.37000012  52.22000122
C    21.87000084   2.76999998  51.97999954
C    17.84000015   1.80000007  51.09000397
C    17.07999992   2.16999984  52.22999954
C    15.69000053   2.11999989  52.22999954
C    25.61000061   3.53999996  51.75000000
H    25.84433937   2.78727674  52.50272369
H    20.96999931   3.37000012  53.87000275
H    20.03000069   1.44999993  49.38999939
H    22.43999863   1.65999997  48.81000137
H    24.75000000   2.38000011  49.41999817
H    23.26999855   3.81999993  53.18999863
H    15.19000053   2.43000007  53.15000153
H    26.31999969   3.38999987  50.93000031
H    25.76000023   4.59000015  52.04000092
S    14.75999928   1.01999998  48.54000092
C    12.05000019   0.67000002  49.20999908
C    13.30000019   1.13000000  49.54999924
C    13.55000019   1.67999995  50.84999847
C    12.48999977   1.87999988  51.70999908
C    11.16000080   1.61000001  51.31000137
C    10.03999901   1.72000003  52.18999863
C     8.80000019   1.18000007  51.91999817
C     8.56999969   0.64000005  50.63000107
C     9.61999989   0.56000000  49.75000000
C    10.93999958   1.03999996  50.00999832
C    14.98999977   1.80000007  51.06999969
C    15.77000046   1.48000002  49.93000031
C    17.15999985   1.43999994  49.92000198
C     7.17999983   0.14999999  50.30000305
H     6.78901339   0.61918396  49.39717484
H    11.90000057   0.06000000  48.31999969
H    12.81000042   2.16999984  52.70000076
H    10.19000053   2.09000015  53.20000076
H     8.06999969   1.26999998  52.72999573
H     9.43000031   0.01000000  48.82999802
H    17.70000076   1.28999996  48.99000168
H     6.44000006   0.37000000  51.07999802
H     7.21000004  -0.93999994  50.13000107
