96

S    17.38000107   1.44999993  60.01999664
C    20.03999901   1.88999999  59.22999954
C    18.78999901   1.38999999  58.95000076
C    18.46999931   0.93000001  57.63000107
C    19.42000008   1.05999994  56.63000107
C    20.72999954   1.49000001  56.93000031
C    21.71999931   1.58000004  55.90999985
C    22.98000145   2.02999997  56.25000000
C    23.34000015   2.38000011  57.56999969
C    22.39000130   2.37000012  58.55999756
C    21.07999992   1.88999999  58.27000046
C    17.02000046   0.85000002  57.50000000
C    16.28000069   1.00999999  58.69999695
C    14.89999962   1.19000006  58.70999908
C    24.79999924   2.68000007  57.85999680
H    25.16379166   2.01661515  58.64464569
H    20.23999977   2.36000013  60.19000244
H    19.20999908   0.59000003  55.66999817
H    21.48999977   1.04999995  54.99000168
H    23.75999832   1.76999998  55.52999878
H    22.62000084   2.79999995  59.54000092
H    14.37000084   1.28000009  59.65999985
H    25.38999939   2.43000007  56.97000122
H    24.96000099   3.75000000  58.02999878
S    13.89999962   0.14000000  55.01999664
C    11.18000031  -0.17000002  55.72000122
C    12.46000099   0.23000000  56.04999924
C    12.76999950   0.78000003  57.34000397
C    11.80999947   0.92000002  58.31999969
C    10.47000027   0.64000005  57.95000076
C     9.38000011   0.71999997  58.86000061
C     8.09000015   0.50999999  58.43999863
C     7.79999971   0.00000000  57.15000153
C     8.82000065  -0.22000000  56.25000000
C    10.14999962   0.12000000  56.65000153
C    14.19999981   0.97999996  57.51999664
C    14.93999958   0.73000002  56.32999802
C    16.32999992   0.73000002  56.30000305
C     6.38999987  -0.46000001  56.86999893
H     5.89856720   0.11689910  56.08655548
H    11.03999996  -0.46999997  54.68999863
H    12.23000050   1.16999996  59.29000092
H     9.53999996   1.13999999  59.85000229
H     7.23000002   0.69999999  59.08000183
H     8.55000019  -0.69999999  55.31999969
H    16.75000000   0.57999998  55.31000137
H     5.77000046  -0.52999997  57.77999878
H     6.43000031  -1.48000002  56.45000076
S    18.12000084   2.36000013  53.68999863
C    20.81000137   2.56999993  52.93000031
C    19.52000046   2.25000000  52.60000229
C    19.17000008   1.66999996  51.33999634
C    20.17999840   1.47000003  50.41999817
C    21.53000069   1.80999994  50.70000076
C    22.60000038   1.58999991  49.79999924
C    23.85999870   2.03999996  50.14999771
C    24.18000031   2.61999989  51.39999771
C    23.18000031   2.76999998  52.31999969
C    21.84000015   2.44000006  51.95999908
C    17.71999931   1.53999996  51.18000031
C    17.02999878   1.86000001  52.37999725
C    15.65999985   1.74000001  52.52999878
C    25.56999969   3.05000019  51.81000137
H    25.89748764   2.40926051  52.62872314
H    21.00000000   2.98000002  53.92000198
H    19.88999939   1.02999997  49.47000122
H    22.53000069   1.02999997  48.87000275
H    24.68000031   1.80000007  49.47999954
H    23.29000092   3.14000010  53.34000015
H    15.22999954   1.99000001  53.50000000
H    26.24000168   3.05999994  50.93000031
H    25.45000076   4.13000011  51.98999786
S    14.52999973   0.54000002  48.89999771
C    11.76000023   0.56999999  49.54000092
C    13.07000065   0.82999998  49.86999893
C    13.45999908   1.28000009  51.17000198
C    12.44999981   1.43000007  52.09999847
C    11.10999966   1.08000004  51.79999924
C    10.05000019   1.31999993  52.72999573
C     8.78999996   0.81000000  52.57999802
C     8.45000076   0.22000000  51.32999802
C     9.39000034   0.17000002  50.33000183
C    10.76000023   0.48000002  50.54000092
C    14.89999962   1.38000000  51.40999603
C    15.59999943   1.00000000  50.24000168
C    16.97999954   1.00000000  50.13000107
C     6.98000002  -0.01000000  51.05999756
H     6.76737976   0.50737607  50.12446976
H    11.46999931   0.37000000  48.50999832
H    12.60000038   1.77999997  53.11000061
H    10.24000072   1.81999993  53.67000198
H     8.01000023   1.05999994  53.29999924
H     9.06999969   0.00000000  49.29999924
H    17.46999931   0.56999999  49.26000214
H     6.32999992   0.41000003  51.84000015
H     6.86999989  -1.10000002  51.17000198
