96

S    16.47999954   1.12000000  60.31000137
C    19.15999985   1.30999994  59.54000092
C    17.86999893   0.97000003  59.20999908
C    17.53000069   0.46000001  57.91999817
C    18.57999992   0.19000000  57.05999756
C    19.93000031   0.43000001  57.42000198
C    20.95999908   0.39999998  56.44000244
C    22.27000046   0.71999997  56.70000076
C    22.57999802   1.35000002  57.94000244
C    21.57999992   1.51999998  58.87000275
C    20.25000000   1.04999995  58.68000031
C    16.07999992   0.46000001  57.75000000
C    15.39000034   0.81000000  58.94000244
C    14.01999950   1.00999999  58.93000031
C    23.97999954   1.82999992  58.20999908
H    24.55729294   1.22419965  58.90845490
H    19.26000023   1.75000000  60.52999878
H    18.37000084  -0.14000000  56.04000092
H    20.72999954   0.08000001  55.43000031
H    23.02999878   0.56999999  55.93999863
H    21.84000015   2.09000015  59.75999832
H    13.48999977   1.28999996  59.84000397
H    24.44999886   2.01999998  57.22999954
H    23.85000038   2.82999992  58.64999771
S    12.98999977  -0.29999998  55.26000214
C    10.26999950  -0.50999999  56.00999832
C    11.54999924  -0.07000000  56.27999878
C    11.87000084   0.56999999  57.50999832
C    10.82999992   0.88000000  58.36999893
C     9.51000023   0.41000003  58.15000153
C     8.36999989   0.57999998  59.00000000
C     7.09000015   0.22000000  58.67000198
C     6.83000040  -0.32999998  57.38999939
C     7.86999989  -0.56000000  56.52999878
C     9.21000004  -0.28000000  56.93000031
C    13.30000019   0.65999997  57.77999878
C    14.00000000   0.14999999  56.65999985
C    15.38000011   0.17000002  56.56999969
C     5.46000004  -0.85000002  57.00000000
H     5.03182602  -0.20060253  56.23642349
H    10.11999989  -1.10000002  55.12000275
H    11.10000038   1.29999995  59.33000183
H     8.45000076   1.22000003  59.86999893
H     6.25000000   0.14000000  59.36000061
H     7.64999962  -1.13999999  55.63999939
H    15.92000008  -0.06000000  55.65000153
H     4.69999981  -0.88000000  57.80000305
H     5.66999960  -1.84000003  56.56999969
S    13.60000038  -2.26999998  52.36000061
C    10.93000031  -3.01999998  53.06999969
C    12.28000069  -2.96999979  53.33000183
C    12.81000042  -3.52999973  54.52999878
C    11.92000008  -4.21000004  55.34999847
C    10.52999973  -4.18000031  55.13999939
C     9.55999947  -4.74000025  56.02000427
C     8.21000004  -4.53999996  55.81999969
C     7.67000008  -3.88000011  54.68000031
C     8.57999992  -3.44000006  53.75000000
C     9.98000050  -3.51999998  53.97999573
C    14.23999977  -3.30000019  54.69999695
C    14.78999996  -2.51999998  53.64999771
C    16.13999939  -2.23000002  53.55999756
C     6.19000006  -3.63999987  54.43999863
H     5.81891537  -3.98967576  53.47660828
H    10.65000057  -2.47000003  52.16999817
H    12.43999958  -4.73000002  56.14999771
H     9.85999966  -5.29999971  56.90000153
H     7.50999975  -4.84000015  56.59000015
H     8.31999969  -3.02999997  52.77999878
H    16.54000092  -2.00000000  52.56999969
H     5.55000019  -3.91999984  55.28999710
H     6.11999989  -2.54999995  54.31999969
S    17.57999992  -3.86000013  56.93000031
C    20.26000023  -3.22000003  56.22000122
C    18.92000008  -3.25999999  55.93000031
C    18.39999962  -2.69000006  54.72000122
C    19.27000046  -2.02999997  53.88000107
C    20.68000031  -2.09000015  54.06000137
C    21.67000008  -1.51999998  53.20999908
C    23.01000214  -1.66999996  53.46000290
C    23.50000000  -2.26999998  54.65000153
C    22.56999969  -2.91000009  55.44000244
C    21.18000031  -2.71000004  55.26000214
C    16.95000076  -2.73000002  54.58000183
C    16.39000130  -3.33999991  55.72999954
C    15.05000019  -3.70000005  55.77000046
C    24.94999886  -2.00000000  54.98000336
H    25.24198723  -2.25637865  55.99839020
H    20.59999847  -3.63999987  57.16999817
H    18.85000038  -1.48000002  53.04000092
H    21.25000000  -1.00999999  52.35000229
H    23.61000061  -0.99000001  52.85999680
H    22.85000038  -3.35000014  56.39999771
H    14.56999969  -4.23999977  56.59000015
H    25.26000023  -0.96000004  54.82999802
H    25.45999908  -2.59999990  54.20999908
