96

S    17.07999992   1.76999998  60.04000092
C    19.76000023   2.20000005  59.47000122
C    18.57999992   1.59999990  59.09999847
C    18.23999977   1.18000007  57.77000046
C    19.26000023   1.08000004  56.84999847
C    20.52000046   1.64000010  57.15000153
C    21.64999962   1.43999994  56.31000137
C    22.92000008   1.87999988  56.60999680
C    23.12000084   2.49000001  57.88000107
C    22.06999969   2.66000009  58.75000000
C    20.76000023   2.17999983  58.46000290
C    16.81999969   0.92000002  57.54000092
C    16.05999947   1.34000003  58.66000366
C    14.67000008   1.38999999  58.62999725
C    24.56000137   2.80999994  58.20999908
H    24.97296524   2.05527210  58.87928772
H    20.00000000   2.46000004  60.50000000
H    19.09000015   0.65999997  55.86000061
H    21.48999977   0.79000002  55.45999908
H    23.71999931   1.71000004  55.89000320
H    22.37999916   3.01999998  59.72999954
H    14.17000008   1.43999994  59.59999847
H    25.20000076   2.75999999  57.31999969
H    24.50000000   3.84000015  58.59000397
S    13.64999962   0.14999999  55.06000137
C    10.93999958  -0.17000002  55.63999939
C    12.18000031   0.28000000  56.04000092
C    12.51000023   0.71999997  57.36000061
C    11.44999981   0.90999997  58.22999954
C    10.14000034   0.52999997  57.84999847
C     9.06999969   0.52999997  58.79000092
C     7.83999968  -0.01000000  58.47999954
C     7.55000019  -0.32999998  57.12999725
C     8.55000019  -0.44000000  56.18999863
C     9.85999966  -0.02000000  56.55000305
C    13.93000031   0.97999996  57.50999832
C    14.72000027   0.57999998  56.40999603
C    16.10999870   0.52999997  56.39999771
C     6.19999981  -0.90999997  56.77999878
H     5.63753796  -0.20514250  56.16769791
H    10.77999973  -0.48000002  54.61000061
H    11.56000042   1.18000007  59.27000046
H     9.28999996   0.93999994  59.77000427
H     7.09999990  -0.14000000  59.26000214
H     8.38999939  -0.94999999  55.24000168
H    16.50000000   0.28999999  55.40999985
H     5.64000034  -1.19000006  57.67000198
H     6.38000011  -1.84000003  56.23000336
S    17.18000031   2.06999993  53.69999695
C    19.93999863   2.32999992  53.13000107
C    18.65999985   2.04999995  52.71999741
C    18.38999939   1.66999996  51.36000061
C    19.47000122   1.70000005  50.50000000
C    20.76000023   2.13000011  50.86000061
C    21.80999947   2.26999998  49.89999771
C    23.06999969   2.63000011  50.31000137
C    23.35000038   3.00999999  51.65000153
C    22.36999893   2.79000020  52.58999634
C    21.02000046   2.50999975  52.22999954
C    17.01000023   1.28999996  51.09000397
C    16.28000069   1.50999999  52.28000259
C    14.89999962   1.33000004  52.35000229
C    24.75000000   3.44000006  52.02999878
H    25.17071342   2.84814882  52.84290314
H    20.02000046   2.63000011  54.16999817
H    19.23999977   1.25000000  49.52999878
H    21.47000122   2.17999983  48.87000275
H    23.85999870   2.92000008  49.61999893
H    22.52000046   2.93000007  53.66000366
H    14.32000065   1.69000006  53.20000076
H    25.40999985   3.22000003  51.18000031
H    24.90999985   4.51000023  52.21000290
S    13.94999981   0.34999999  48.64999771
C    11.23000050   0.27000001  49.29000092
C    12.51000023   0.59999996  49.65999985
C    12.79999924   1.18000007  50.93000031
C    11.80999947   1.28000009  51.90000153
C    10.50000000   0.90999997  51.52000046
C     9.42000008   1.08999991  52.43000031
C     8.14000034   0.83999997  51.97000122
C     7.76999998   0.35999998  50.68999863
C     8.84000015  -0.01000000  49.89999771
C    10.18000031   0.32000002  50.25000000
C    14.23999977   1.18000007  51.12999725
C    15.01000023   0.88999999  49.97000122
C    16.39000130   0.93999994  49.87999725
C     6.32999992  -0.05000000  50.47000122
H     5.86137295   0.63873947  49.76705933
H    11.13999939  -0.09999999  48.27000046
H    12.15999985   1.64000010  52.85999680
H     9.61000061   1.31999993  53.47000122
H     7.30999994   0.83999997  52.67000198
H     8.80999947  -0.43000001  48.89999771
H    16.95000076   0.90999997  48.95000076
H     5.75999975  -0.09000000  51.40999603
H     6.38000011  -1.07000005  50.06999969
