96

S    17.38000107   1.13000000  60.14999771
C    20.06999969   1.52999997  59.40999985
C    18.81000137   1.07000005  59.10999680
C    18.45000076   0.63000000  57.78999710
C    19.40999985   0.69000000  56.81000137
C    20.72000122   1.19000006  57.04999924
C    21.80999947   1.04999995  56.16000366
C    23.11000061   1.25999999  56.56999969
C    23.36000061   1.76999998  57.87000275
C    22.36000061   1.99000001  58.79000092
C    21.04999924   1.59999990  58.39000320
C    17.01000023   0.54000002  57.61000061
C    16.28000069   0.73000002  58.81999969
C    14.89999962   0.71999997  58.95000076
C    24.77999878   2.09999990  58.26000214
H    25.15602684   1.48274779  59.07590866
H    20.22000122   1.80999994  60.45000076
H    19.14999962   0.34999999  55.80999756
H    21.63999939   0.48999998  55.24000168
H    23.97999954   1.00000000  55.97999954
H    22.47999954   2.22000003  59.84000397
H    14.42000008   1.08000004  59.86000061
H    25.39999962   1.88999999  57.37999725
H    24.64999962   3.16000009  58.50999832
S    13.73999977  -0.01000000  55.26000214
C    11.03000069  -0.19999999  55.89000320
C    12.30999947   0.12000000  56.30000305
C    12.69000053   0.39999998  57.64999771
C    11.69000053   0.41000003  58.61000061
C    10.34000015   0.20999999  58.22999954
C     9.26000023   0.28000000  59.15999985
C     7.96000004   0.05000000  58.79000092
C     7.68000031  -0.51999998  57.51999664
C     8.71999931  -0.71999997  56.63999939
C    10.03999901  -0.24000001  56.90000153
C    14.13000011   0.43000001  57.81999969
C    14.85999966   0.20999999  56.62000275
C    16.23999977   0.32999998  56.45999908
C     6.24000025  -0.76999998  57.14000320
H     5.89698315  -0.19115949  56.28245926
H    10.88000107  -0.46999997  54.85000229
H    11.96000004   0.71000004  59.61000061
H     9.55000019   0.62000000  60.14999771
H     7.13999987   0.09999999  59.51000214
H     8.47999954  -0.99000001  55.61999893
H    16.69999886   0.14999999  55.50000000
H     5.55999994  -0.64999998  58.00000000
H     6.15000010  -1.79000008  56.75000000
S    13.94999981  -2.21000004  52.25000000
C    11.32999992  -3.00999999  52.91999817
C    12.67000008  -3.00000000  53.20000076
C    13.17999935  -3.49000001  54.45000076
C    12.35000038  -4.18000031  55.30000305
C    10.95000076  -4.09999990  55.10000229
C    10.03999901  -4.55999994  56.10000229
C     8.67999935  -4.48000002  55.93000031
C     8.17000008  -4.03999996  54.68000031
C     9.02000046  -3.51999998  53.73000336
C    10.43000031  -3.56999993  53.87000275
C    14.60000038  -3.19999981  54.59999847
C    15.17000008  -2.49000001  53.50999832
C    16.51000023  -2.15000010  53.40999985
C     6.67000008  -4.02999973  54.47000122
H     6.36496115  -3.80299401  53.44847488
H    10.98000050  -2.49000001  52.02999878
H    12.61999989  -4.44999981  56.31999969
H    10.44999981  -5.03000021  56.98999786
H     8.02999973  -4.79999971  56.73999786
H     8.69000053  -3.07000017  52.80000305
H    16.90000153  -1.80999994  52.44999695
H     6.38000011  -5.01999950  54.84000397
H     6.19999981  -3.30000019  55.14999771
S    18.09000015  -3.70000005  56.68000031
C    20.68000031  -2.94999981  56.12999725
C    19.36000061  -2.86999989  55.76000214
C    18.78000069  -2.27999997  54.59000015
C    19.64999962  -1.64000010  53.73000336
C    21.02000046  -1.72999990  54.06999969
C    21.90000153  -1.08000004  53.15999985
C    23.26000023  -1.22000003  53.29000092
C    23.85000038  -1.87999988  54.40000153
C    23.01000214  -2.47000003  55.31999969
C    21.60000038  -2.48000002  55.15999603
C    17.35000038  -2.52999997  54.45999908
C    16.79000092  -3.22000003  55.56000137
C    15.46000004  -3.61000013  55.63000107
C    25.31999969  -1.75999999  54.71000290
H    25.63963318  -2.24300361  55.63338852
H    21.04999924  -3.40000010  57.04999924
H    19.43000031  -1.11000001  52.80000305
H    21.48999977  -0.41999999  52.39999771
H    23.81000137  -0.64999998  52.55000305
H    23.40999985  -2.98000002  56.19999695
H    15.01000023  -4.26999998  56.37000275
H    25.46999931  -0.68000007  54.84000397
H    25.82999992  -2.01999998  53.76999664
