96

S    16.84000015   1.28999996  59.91000366
C    19.52999878   1.67999995  59.25000000
C    18.27999878   1.25000000  58.88000107
C    17.97000122   0.83999997  57.54000092
C    18.98999977   0.71000004  56.63000107
C    20.26000023   1.25999999  56.91999817
C    21.34000015   1.13999999  56.00999832
C    22.59000015   1.65999997  56.25999832
C    22.86999893   2.14000010  57.56999969
C    21.84999847   2.25000000  58.47999954
C    20.52000046   1.77999997  58.23999786
C    16.53000069   0.64999998  57.36999893
C    15.77999973   0.96000004  58.53000259
C    14.39000034   1.04999995  58.56999969
C    24.27999878   2.48000002  57.97999954
H    24.59338379   1.78200912  58.75633621
H    19.78000069   2.04999995  60.24000168
H    18.84000015   0.25999999  55.65000153
H    21.07999992   0.51999998  55.14999771
H    23.29999924   1.64000010  55.44000244
H    22.19000053   2.61000013  59.45000076
H    13.93000031   1.22000003  59.54000092
H    24.87999916   2.39999986  57.06999969
H    24.21999931   3.52999973  58.31999969
S    13.35999966  -0.06000000  54.93999863
C    10.62999916  -0.19999999  55.45000076
C    11.87999916   0.17000002  55.90000153
C    12.18999958   0.65999997  57.19999695
C    11.17000008   0.75999999  58.13999939
C     9.86999989   0.35999998  57.77000046
C     8.75000000   0.38000000  58.66000366
C     7.49000025   0.07000000  58.20999908
C     7.23000002  -0.32000002  56.86999893
C     8.28999996  -0.35999998  55.98999786
C     9.59999943  -0.02000000  56.40999603
C    13.61999989   0.81000000  57.43000031
C    14.37999916   0.50000000  56.26999664
C    15.77000046   0.39000002  56.23000336
C     5.88999987  -0.88999999  56.45000076
H     5.36950111  -0.14846760  55.84394073
H    10.52999973  -0.68000007  54.47999954
H    11.39999962   0.90000004  59.19000244
H     8.93000031   0.55000001  59.72000122
H     6.69000053  -0.06000000  58.93000031
H     8.21000004  -0.82000005  55.00999832
H    16.34000015   0.11000000  55.34999847
H     5.31000042  -1.13999999  57.34000397
H     6.05999994  -1.84000003  55.91999817
S    13.88000011  -2.00999999  51.98999786
C    11.23999977  -2.63000011  52.70999908
C    12.57999992  -2.75000000  52.95000076
C    13.07000065  -3.37000012  54.15000153
C    12.17000008  -3.94000006  55.02999878
C    10.78999996  -3.70000005  54.82999802
C     9.96000004  -4.28000021  55.83000183
C     8.64000034  -4.42000008  55.47000122
C     8.06999969  -3.93000007  54.26000214
C     8.88000011  -3.28999996  53.34999847
C    10.29000092  -3.23000002  53.56999969
C    14.51000023  -3.22000003  54.26000214
C    15.10000038  -2.49000001  53.20000076
C    16.39000130  -1.98000002  53.31999969
C     6.63999987  -4.33999968  53.96999741
H     6.29193211  -3.90669060  53.03234482
H    10.93000031  -2.20000005  51.76000214
H    12.51999950  -4.44999981  55.93000031
H    10.40999985  -4.82999992  56.65999985
H     8.10999966  -5.05000019  56.18000031
H     8.56999969  -2.91000009  52.37999725
H    16.70999908  -1.48000002  52.42000198
H     6.51999998  -5.42000008  54.03999710
H     5.97000027  -3.89999986  54.72000122
S    17.77000046  -3.65000010  56.65000153
C    20.43999863  -3.15000010  55.98999786
C    19.11000061  -2.96999979  55.70000076
C    18.67000008  -2.36000013  54.47999954
C    19.63999939  -1.82999992  53.64999771
C    21.02000046  -1.87999988  53.94000244
C    22.00000000  -1.23000002  53.13999939
C    23.29000092  -1.33000004  53.59000397
C    23.71000099  -1.85000002  54.85000229
C    22.78000069  -2.57999992  55.54999924
C    21.40999985  -2.54999995  55.15999603
C    17.21999931  -2.43000007  54.34999847
C    16.61000061  -3.17999983  55.38000107
C    15.26000023  -3.51999998  55.40999985
C    25.10999870  -1.48000002  55.28999710
H    25.54382515  -2.08451056  56.08652878
H    20.78000069  -3.75999975  56.83000183
H    19.22000122  -1.63000000  52.67000198
H    21.77000046  -0.59999996  52.28000259
H    23.94000053  -0.81000000  52.88999939
H    23.09999847  -3.05999994  56.46999741
H    14.93000031  -4.00000000  56.31999969
H    25.03000069  -0.41999999  55.56999969
H    25.65000153  -1.48000002  54.33000183
