96

S    16.82999992   1.85000002  59.84000397
C    19.55999947   1.88999999  59.26000214
C    18.29000092   1.50000000  58.89999771
C    17.94000053   0.94999999  57.62000275
C    18.93000031   0.88999999  56.66999817
C    20.25000000   1.33000004  56.93000031
C    21.31999969   1.31999993  55.98999786
C    22.59000015   1.82999992  56.16000366
C    22.86999893   2.25999999  57.49000168
C    21.90000153   2.23000002  58.47000122
C    20.55000114   1.85000002  58.25000000
C    16.48999977   0.87000000  57.47000122
C    15.72000027   1.44999993  58.50999832
C    14.32999992   1.48000002  58.57999802
C    24.27999878   2.64999986  57.84999847
H    24.68466187   1.81227541  58.41794586
H    19.73999977   2.46000004  60.17000198
H    18.71999931   0.41000003  55.72000122
H    21.19999886   0.83999997  55.01999664
H    23.34000015   1.79000008  55.38000107
H    22.11999893   2.61999989  59.45999908
H    13.94000053   1.94999993  59.47000122
H    24.84000015   2.71000004  56.90000153
H    24.25000000   3.58999991  58.41999817
S    13.47000027   0.14000000  54.92000198
C    10.75000000  -0.01000000  55.47000122
C    12.01000023   0.34000003  55.90000153
C    12.28000069   0.99000001  57.15000153
C    11.25000000   1.41000009  57.95999908
C     9.94000053   0.97999996  57.62000275
C     8.82999992   1.19000006  58.47999954
C     7.55999994   0.79000002  58.11999893
C     7.31999969   0.01000000  56.95999908
C     8.38000011  -0.12000000  56.07999802
C     9.70000076   0.34000003  56.36000061
C    13.69999981   0.90999997  57.47000122
C    14.45000076   0.41999999  56.37000275
C    15.82999992   0.38000000  56.32999802
C     5.93999958  -0.48999998  56.62000275
H     5.47968245   0.16860774  55.88349533
H    10.72000027  -0.51999998  54.51000214
H    11.35000038   1.75999999  58.99000168
H     9.03999996   1.65999997  59.43999863
H     6.83000040   1.03999996  58.88999939
H     8.23000050  -0.69000000  55.17000198
H    16.26000023  -0.08000001  55.45000076
H     5.21000004  -0.55000001  57.43999863
H     6.15999985  -1.43000007  56.11999893
S    13.66000080  -1.82999992  51.77999878
C    11.00000000  -2.17999983  52.37999725
C    12.30000019  -2.49000001  52.70000076
C    12.65999985  -3.16000009  53.90999603
C    11.68000031  -3.51999998  54.80999756
C    10.32999992  -3.35000014  54.41999817
C     9.25000000  -3.81999993  55.21999741
C     7.92999983  -3.68999982  54.88999939
C     7.60999966  -2.99000001  53.68999863
C     8.57999992  -2.45000005  52.88000107
C     9.94999981  -2.66000009  53.20999908
C    14.11000061  -3.07000017  54.08000183
C    14.78000069  -2.38999987  53.04000092
C    16.10999870  -1.97000003  53.09999847
C     6.17000008  -2.61000013  53.44999695
H     5.88566399  -3.08626366  52.51168823
H    10.81999969  -1.69000006  51.43000031
H    12.00000000  -3.96000004  55.75000000
H     9.44999981  -4.56999969  55.97999954
H     7.16000032  -4.07999992  55.54999924
H     8.34999943  -1.84000003  52.02000046
H    16.52000046  -1.50999999  52.19999695
H     5.59000015  -2.96000004  54.31000137
H     5.98999977  -1.53999996  53.27999878
S    17.27000046  -3.38999987  56.60999680
C    20.00999832  -2.79000020  56.18999863
C    18.70000076  -2.76999998  55.75000000
C    18.25000000  -2.11999989  54.55999756
C    19.19000053  -1.59999990  53.68999863
C    20.55000114  -1.53999996  54.09000015
C    21.60000038  -1.11000001  53.22999954
C    22.92000008  -1.18000007  53.61000061
C    23.25000000  -1.56000006  54.93999863
C    22.29000092  -2.10999990  55.76000214
C    20.93000031  -2.11999989  55.34999847
C    16.84000015  -2.28999996  54.23999786
C    16.15999985  -2.96999979  55.27999878
C    14.81999969  -3.35000014  55.25000000
C    24.68000031  -1.25000000  55.31999969
H    25.14329910  -2.10532284  55.81180954
H    20.31999969  -3.25000000  57.11999893
H    19.04000092  -1.44999993  52.62000275
H    21.18000031  -0.65999997  52.34000397
H    23.67000198  -0.71000004  52.97999954
H    22.53999901  -2.54999995  56.72999954
H    14.42999935  -3.84999990  56.13999939
H    24.75000000  -0.27000001  55.80999756
H    25.17999840  -1.02999997  54.36999893
