96

S    17.06999969   1.87000012  59.97000122
C    19.78000069   2.00000000  59.29000092
C    18.51000023   1.57000005  58.97999573
C    18.23999977   0.90999997  57.72999573
C    19.27999878   0.69000000  56.84999847
C    20.55999947   1.25000000  57.06999969
C    21.61000061   1.01999998  56.13999939
C    22.88000107   1.48000002  56.39999771
C    23.08000183   2.24000001  57.57999802
C    22.11000061   2.45000005  58.54000092
C    20.81999969   1.88999999  58.33000183
C    16.81999969   0.68000007  57.52999878
C    16.10000038   1.19999993  58.62999725
C    14.72000027   1.30999994  58.62999725
C    24.51000023   2.51999998  57.97999954
H    24.80123520   1.91622257  58.83949661
H    20.00999832   2.48000002  60.22999573
H    19.06999969   0.06000000  55.98999786
H    21.27000046   0.44000000  55.27999878
H    23.72999954   1.24000001  55.77000046
H    22.39999962   2.84999990  59.51000214
H    14.18000031   1.81999993  59.41999817
H    25.28000069   2.25999999  57.25000000
H    24.60000038   3.56999993  58.29000092
S    13.61999989  -0.13000000  55.11000061
C    10.93000031  -0.24000001  55.86999893
C    12.18999958   0.23000000  56.11000061
C    12.56000042   0.78000003  57.37999725
C    11.61999893   1.14999998  58.33000183
C    10.29999924   0.71999997  58.09999847
C     9.19000053   0.90999997  58.96999741
C     7.94000053   0.34999999  58.83999634
C     7.65999985  -0.31000000  57.61000061
C     8.60999966  -0.32999998  56.62000275
C     9.96999931  -0.00000000  56.88999939
C    14.01000023   0.82000005  57.51999664
C    14.73999977   0.28000000  56.42000198
C    16.11999893   0.14999999  56.43000031
C     6.28999996  -0.87000000  57.29999924
H     5.75522852  -0.15697151  56.67253494
H    10.65000057  -0.71999997  54.93999863
H    11.97000027   1.52999997  59.27999878
H     9.38000011   1.48000002  59.87999725
H     7.20000029   0.38000000  59.64000320
H     8.27999973  -0.64999998  55.63999939
H    16.69999886  -0.17999999  55.58000183
H     5.68000031  -1.00000000  58.20000076
H     6.17999983  -1.84000003  56.81000137
S    14.40999985  -2.14000010  51.98999786
C    11.78999996  -2.52999997  52.60000229
C    13.09000015  -2.80999994  52.95000076
C    13.53999996  -3.44000006  54.15000153
C    12.56000042  -3.98999977  54.95999908
C    11.18999958  -3.81000018  54.64000320
C    10.15999985  -4.33999968  55.47000122
C     8.82000065  -4.11999989  55.25000000
C     8.47000027  -3.45999980  54.05000305
C     9.42000008  -2.89000010  53.22000122
C    10.80000019  -3.10999990  53.43999863
C    14.93999958  -3.16000009  54.43000031
C    15.51000023  -2.45000005  53.34999847
C    16.81999969  -1.98000002  53.34999847
C     7.03000021  -3.09999990  53.79000092
H     6.58822536  -3.48477125  52.87082291
H    11.46000004  -1.86000001  51.79999924
H    12.76999950  -4.32999992  55.97000122
H    10.43000031  -4.94999981  56.32999802
H     8.01999950  -4.48000002  55.90000153
H     9.18000031  -2.21000004  52.41000366
H    17.30999947  -1.42000008  52.55000305
H     6.48999977  -3.45000005  54.68000031
H     6.84999990  -2.01999998  53.75000000
S    18.13999939  -3.48000002  56.86000061
C    20.85000038  -3.12000012  56.11999893
C    19.51000023  -2.89999986  55.89000320
C    19.04000092  -2.22000003  54.72000122
C    20.07999802  -1.75000000  53.95000076
C    21.47999954  -1.76999998  54.19000244
C    22.49000168  -1.23000002  53.34999847
C    23.82999802  -1.49000001  53.52000427
C    24.20000076  -2.21000004  54.68999863
C    23.26000023  -2.86000013  55.47000122
C    21.87000084  -2.61000013  55.28999710
C    17.61999893  -2.37000012  54.41999817
C    17.02999878  -2.98000002  55.56000137
C    15.69000053  -3.33999991  55.59999847
C    25.63999939  -2.33999991  55.12000275
H    25.95375824  -1.61264920  55.86874390
H    21.11000061  -3.76999998  56.95000076
H    19.79999924  -1.36999989  52.97000122
H    22.06000137  -0.78000003  52.45999908
H    24.59000015  -1.12000000  52.84999847
H    23.57000160  -3.50000000  56.29000092
H    15.21999931  -3.93000007  56.38000107
H    26.18999863  -2.11999989  54.20000076
H    25.89999962  -3.35999990  55.44000244
