96

S    17.61999893   2.09000015  59.79000092
C    20.28000069   2.34999990  59.03999710
C    19.03000069   1.85000002  58.74000168
C    18.78999901   1.25999999  57.45999908
C    19.85000038   0.97999996  56.60999680
C    21.15999985   1.42000008  56.93000031
C    22.26000023   1.22000003  56.05999756
C    23.50000000   1.74000001  56.33999634
C    23.74000168   2.48000002  57.52999878
C    22.67000008   2.66999984  58.39000320
C    21.37000084   2.16000009  58.15000153
C    17.35000038   1.10000002  57.29999924
C    16.61999893   1.47000003  58.46000290
C    15.24000072   1.58999991  58.40999985
C    25.10000038   3.07000017  57.80000305
H    25.56856728   2.38844728  58.50995255
H    20.31999969   2.98000002  59.93000031
H    19.68000031   0.34999999  55.75000000
H    21.94999886   0.87000000  55.06999969
H    24.28999901   1.50000000  55.63999939
H    22.90999985   3.31999993  59.22999954
H    14.75000000   1.85000002  59.34999847
H    25.59999847   3.21000004  56.84000015
H    25.00999832   4.07999992  58.23999786
S    14.27999973   0.09000000  54.88999939
C    11.50000000   0.17999999  55.40000153
C    12.79000092   0.46999997  55.79000092
C    13.07999992   1.12000000  57.02999878
C    12.07999992   1.22000003  57.97999954
C    10.75000000   0.85000002  57.69000244
C     9.72999954   0.94999999  58.68000031
C     8.47999954   0.50000000  58.31999969
C     8.22000027  -0.12000000  57.06999969
C     9.21000004  -0.27000001  56.11999893
C    10.48999977   0.27000001  56.38999939
C    14.51000023   1.34000003  57.23999786
C    15.26999950   0.86000001  56.14999771
C    16.63999939   0.64000005  56.18000031
C     6.84999990  -0.57999998  56.65000153
H     6.27388763   0.13836211  56.06677628
H    11.28999901  -0.14999999  54.38999939
H    12.32999992   1.57000005  58.97999573
H     9.96999931   1.41000009  59.62999725
H     7.65999985   0.55000001  59.02999878
H     8.98999977  -0.67000002  55.13000107
H    17.10000038   0.31000000  55.26000214
H     6.25999975  -0.71999997  57.56999969
H     6.94000006  -1.48000002  56.04000092
S    14.63999939  -2.03999996  52.02999878
C    11.95000076  -2.27999997  52.95000076
C    13.28999996  -2.54999995  53.06000137
C    13.78999901  -3.15000010  54.26000214
C    12.92000008  -3.63000011  55.22999573
C    11.52999973  -3.49000001  55.00999832
C    10.59000015  -4.21000004  55.79999924
C     9.22999954  -4.17000008  55.58000183
C     8.71999931  -3.40999985  54.50000000
C     9.59000015  -2.63999987  53.76999664
C    11.00999928  -2.75000000  53.89999771
C    15.22999954  -2.94999981  54.38999939
C    15.86999989  -2.38000011  53.26000214
C    17.19000053  -1.94000006  53.25000000
C     7.27999973  -3.55999994  54.06000137
H     6.83886576  -2.99079466  53.24176788
H    11.61999893  -1.75999999  52.04000092
H    13.26000023  -4.28000021  56.03000259
H    11.03000069  -4.78999996  56.60999680
H     8.64999962  -4.90999985  56.12999725
H     9.26000023  -2.16999984  52.84999847
H    17.51000023  -1.43999994  52.34000397
H     7.27999973  -4.61000013  53.73000336
H     6.54999971  -3.53999996  54.87999725
S    18.63000107  -3.33999991  56.60999680
C    21.30000114  -2.63999987  55.97000122
C    19.95000076  -2.56999993  55.70999908
C    19.42000008  -1.90999997  54.54999924
C    20.29999924  -1.23000002  53.72000122
C    21.68999863  -1.46000004  53.82999802
C    22.60000038  -0.92000002  52.87000275
C    23.95999908  -1.10000002  52.94000244
C    24.46000099  -1.65999997  54.13999939
C    23.61000061  -2.10999990  55.13000107
C    22.20000076  -2.11999989  55.00000000
C    18.00000000  -2.16999984  54.36999893
C    17.38999939  -2.86000013  55.45000076
C    16.04999924  -3.22000003  55.48999786
C    25.95999908  -1.71000004  54.31000137
H    26.25191116  -1.85951543  55.34948730
H    21.73000145  -3.17000008  56.81999969
H    19.85999870  -0.88000000  52.78999710
H    22.11000061  -0.28000000  52.14000320
H    24.69000053  -0.61000001  52.29999924
H    23.95999908  -2.54999995  56.05999756
H    15.72000027  -3.76999998  56.37000275
H    26.40000153  -0.78000003  53.93000031
H    26.37000084  -2.51999998  53.69999695
