96

S    16.06999969   1.26999998  59.86999893
C    18.78999901   1.36999989  59.27000046
C    17.51000023   1.10000002  58.83999634
C    17.18000031   0.75000000  57.49000168
C    18.18000031   0.78000003  56.53999710
C    19.52000046   1.01999998  56.91999817
C    20.62999916   0.93999994  56.02000427
C    21.91999817   1.21000004  56.38999939
C    22.17000008   1.54999995  57.75000000
C    21.14999962   1.62000000  58.67000198
C    19.79999924   1.41000009  58.27999878
C    15.75000000   0.61000001  57.27000427
C    15.05000019   0.96000004  58.44999695
C    13.67000008   1.13999999  58.47000122
C    23.59999847   1.79000008  58.16999817
H    24.04240799   0.94086099  58.69089890
H    19.06999969   1.72999990  60.26000214
H    18.06999969   0.61000001  55.47000122
H    20.51000214   0.69999999  54.97000122
H    22.85000038   0.99000001  55.86000061
H    21.32999802   1.80999994  59.72999954
H    13.12000084   1.56000006  59.31000137
H    24.31999969   2.13000011  57.42000198
H    23.52000046   2.68000007  58.80000305
S    12.51000023  -0.17000002  54.92000198
C     9.82999992  -0.28999999  55.65000153
C    11.09000015   0.19000000  55.91999817
C    11.51999950   0.65999997  57.19999695
C    10.54999924   0.85000002  58.16999817
C     9.21000004   0.52999997  57.88000107
C     8.17000008   0.78000003  58.81999969
C     6.90000010   0.28999999  58.64999771
C     6.58999968  -0.51999998  57.52999878
C     7.53000021  -0.65999997  56.52999878
C     8.84000015  -0.11000000  56.63999939
C    12.96000004   0.81000000  57.30999756
C    13.66000080   0.43000001  56.12999725
C    15.03000069   0.20999999  56.13999939
C     5.17000008  -0.92000002  57.19999695
H     4.80723953  -0.35807675  56.33932877
H     9.63000011  -1.00999999  54.85000229
H    10.85000038   1.13999999  59.18000031
H     8.59000015   1.28000009  59.68999863
H     6.25000000   0.32999998  59.52000046
H     7.16000032  -0.99000001  55.56000137
H    15.53999996  -0.13000000  55.25000000
H     4.55999994  -0.71000004  58.08000183
H     5.03000021  -1.99000001  56.97000122
S    13.55000019  -2.19000006  51.90000153
C    10.90000057  -2.70000005  52.52999878
C    12.22000027  -2.82999992  52.88999939
C    12.69000053  -3.42000008  54.09999847
C    11.79999924  -4.01999998  54.97000122
C    10.43000031  -3.94000006  54.59999847
C     9.47000027  -4.65999985  55.35999680
C     8.18000031  -4.69999981  54.91000366
C     7.68000031  -3.81000018  53.92000198
C     8.56999969  -3.12999988  53.11999893
C     9.94999981  -3.25999999  53.43000031
C    14.11999893  -3.16000009  54.29999924
C    14.72000027  -2.51999998  53.18999863
C    16.02000046  -2.02999997  53.25000000
C     6.17999983  -3.68000007  53.75999832
H     5.88835669  -3.52350831  52.72146225
H    10.57000065  -2.20000005  51.62000275
H    12.13000107  -4.59999990  55.83000183
H     9.68999958  -5.15999985  56.31000137
H     7.51999950  -5.35000038  55.47999954
H     8.32999992  -2.50000000  52.27000427
H    16.36999893  -1.39999998  52.43999863
H     5.73000002  -4.61000013  54.12000275
H     5.75999975  -2.87999988  54.36999893
S    17.46000099  -3.70000005  56.56999969
C    20.09000015  -2.93000007  56.00999832
C    18.75000000  -2.86000013  55.68999863
C    18.27999878  -2.16999984  54.52999878
C    19.19999886  -1.65000010  53.62999725
C    20.56999969  -1.63000000  54.01000214
C    21.55999947  -1.10000002  53.15000153
C    22.90999985  -1.13999999  53.43999863
C    23.31000137  -1.74000001  54.65999985
C    22.43000031  -2.32999992  55.52999878
C    21.04999924  -2.25000000  55.21999741
C    16.86000061  -2.40999985  54.29999924
C    16.28000069  -3.16000009  55.35999680
C    14.92000008  -3.44000006  55.40999985
C    24.75000000  -2.17999983  54.84000397
H    25.09910774  -1.97338462  55.85170364
H    20.42000008  -3.47000003  56.88999939
H    18.85000038  -1.35000002  52.64999771
H    21.24000168  -0.68000007  52.18999863
H    23.61000061  -0.93000001  52.63999939
H    22.75000000  -2.99000001  56.33999634
H    14.47000027  -3.91000009  56.27999878
H    25.40999985  -1.59999990  54.18000031
H    24.77999878  -3.25999999  54.64000320
