96

S    16.95000076   1.59999990  60.02999878
C    19.67000008   1.38000000  59.52999878
C    18.38999939   1.19000006  59.06999969
C    18.07999992   0.74000001  57.74000168
C    19.15999985   0.45000002  56.93000031
C    20.46999931   0.82999998  57.29999924
C    21.54000092   0.82999998  56.37000275
C    22.82999992   1.13000000  56.73999786
C    23.05999947   1.74000001  58.00000000
C    22.06999969   1.75000000  58.95999908
C    20.76000023   1.30999994  58.62999725
C    16.64999962   0.83999997  57.47000122
C    15.93000031   1.18000007  58.63999939
C    14.55000019   1.10000002  58.73000336
C    24.47000122   2.17999983  58.29000092
H    24.91674995   1.59142601  59.09130859
H    19.82999992   1.81999993  60.51000214
H    18.93000031   0.14999999  55.90999985
H    21.34000015   0.38000000  55.40000153
H    23.59999847   0.79000002  56.04999924
H    22.20999908   2.04999995  60.00000000
H    14.09000015   1.21000004  59.71000290
H    25.09000015   2.01999998  57.39999771
H    24.51000023   3.26999998  58.43000031
S    13.45000076   0.28999999  55.06000137
C    10.73999977  -0.09000000  55.81999969
C    12.00000000   0.39000002  56.07999802
C    12.35999966   0.90000004  57.36999893
C    11.33999920   1.01999998  58.29000092
C    10.01000023   0.69999999  57.97000122
C     8.92000008   0.90000004  58.86000061
C     7.64999962   0.48999998  58.52000427
C     7.27999973  -0.02000000  57.25000000
C     8.30000019  -0.14000000  56.32999802
C     9.64999962   0.07000000  56.72000122
C    13.81000042   0.88999999  57.56000137
C    14.55999947   0.48999998  56.43000031
C    15.93999958   0.35999998  56.36000061
C     5.84999990  -0.45000002  57.01000214
H     5.46584415   0.06220827  56.12786484
H    10.46000004  -0.45000002  54.82999802
H    11.68000031   1.31999993  59.27999878
H     9.11999989   1.31999993  59.84000397
H     6.90000010   0.52999997  59.31000137
H     8.13000011  -0.69000000  55.40999985
H    16.46000099  -0.07000000  55.51000214
H     5.27999973  -0.23000000  57.91999817
H     5.88000011  -1.53999996  56.84999847
S    17.56000137   1.76999998  53.79000092
C    20.28000069   1.85000002  53.13999939
C    19.01000023   1.46000004  52.81000137
C    18.68000031   1.04999995  51.47999573
C    19.70999908   1.04999995  50.54999924
C    20.94000053   1.67999995  50.79999924
C    22.03000069   1.65000010  49.88999939
C    23.29000092   2.07999992  50.25000000
C    23.64000130   2.39999986  51.59000015
C    22.62000084   2.40999985  52.50999832
C    21.30000114   1.99000001  52.15999985
C    17.23999977   1.08000004  51.27999878
C    16.47999954   1.48000002  52.41000366
C    15.11000061   1.72000003  52.45999908
C    25.03000069   2.73000002  52.05999756
H    25.50707436   2.16035771  52.85749817
H    20.61000061   2.14000010  54.13999939
H    19.68000031   0.38000000  49.68999863
H    21.87000084   1.24000001  48.88999939
H    24.11999893   1.95999992  49.55999756
H    22.65999985   2.76999998  53.54000092
H    14.63000107   2.07999992  53.36999893
H    25.68000031   2.73999977  51.17000198
H    25.03000069   3.77999997  52.37999725
S    14.04999924   0.71000004  48.76999664
C    11.36999989   0.56000000  49.47999954
C    12.64999962   0.93999994  49.82999802
C    12.97999954   1.48000002  51.11999893
C    11.96000004   1.80999994  51.98999786
C    10.65000057   1.38000000  51.65999985
C     9.61999989   1.34000003  52.63999939
C     8.34000015   0.92000002  52.35000229
C     8.02999973   0.37000000  51.07999802
C     9.00000000   0.32000002  50.10000229
C    10.31999969   0.75999999  50.40999985
C    14.42000008   1.38000000  51.30000305
C    15.14000034   1.02999997  50.13000107
C    16.53000069   0.99000001  50.06999969
C     6.65000010  -0.16000001  50.79999924
H     6.06706047   0.52246565  50.18151474
H    11.13000011   0.11000000  48.52000427
H    12.18999958   2.16000009  53.00000000
H     9.77999973   1.69000006  53.64999771
H     7.53000021   0.96000004  53.08000183
H     8.78999996  -0.13000000  49.13000107
H    17.09000015   0.88999999  49.15000153
H     6.15000010  -0.22000000  51.77999878
H     6.69000053  -1.13999999  50.30000305
