96

S    17.89999962   1.82999992  59.82999802
C    20.50000000   2.59000015  58.96999741
C    19.27999878   2.00999999  58.73000336
C    18.97999954   1.44999993  57.44999695
C    20.03000069   1.41000009  56.53999710
C    21.32999802   1.89999998  56.83000183
C    22.46000099   1.62000000  56.02000427
C    23.71000099   2.13000011  56.30000305
C    23.94000053   2.93000007  57.44999695
C    22.88999939   3.09999990  58.33000183
C    21.56999969   2.63000011  58.04000092
C    17.54999924   1.22000003  57.29999924
C    16.80999947   1.48000002  58.47999954
C    15.43000031   1.61000001  58.47000122
C    25.36000061   3.25000000  57.84999847
H    25.70295906   2.42832994  58.47875977
H    20.53999901   2.87999988  60.01999664
H    19.80999947   0.90000004  55.61000061
H    22.43000031   1.05999994  55.08999634
H    24.46000099   1.87999988  55.54999924
H    23.02999878   3.56999993  59.29000092
H    14.84000015   1.74000001  59.36999893
H    25.97999954   3.35999990  56.95999908
H    25.40999985   4.09000015  58.54999924
S    14.44000053   0.57999998  54.71000290
C    11.72000027   0.79999995  55.27000046
C    13.02000046   0.92000002  55.72000122
C    13.35000038   1.22000003  57.06999969
C    12.30000019   1.43999994  57.95000076
C    10.95000076   1.29999995  57.56000137
C     9.85999966   1.52999997  58.44999695
C     8.56999969   1.25000000  58.08000183
C     8.26000023   0.76999998  56.77999878
C     9.30999947   0.54000002  55.93000031
C    10.65999985   0.90000004  56.20999908
C    14.78999996   1.36999989  57.23999786
C    15.48999977   1.00000000  56.06999969
C    16.87999916   0.97000003  56.09000397
C     6.84000015   0.31000000  56.50000000
H     6.34881973   0.95778883  55.77390671
H    11.44999981   0.23000000  54.38999939
H    12.50000000   1.75000000  58.96999741
H     9.98999977   1.88999999  59.47000122
H     7.75000000   1.29999995  58.80000305
H     9.19999981   0.16000001  54.92000198
H    17.50000000   1.00999999  55.20999908
H     6.30000019   0.35999998  57.45999908
H     6.80000019  -0.74000001  56.17000198
S    18.53000069   2.68000007  53.68000031
C    21.21000099   2.96999979  52.88000107
C    19.93999863   2.51999998  52.61000061
C    19.52999878   1.93000007  51.37000275
C    20.50000000   1.76999998  50.40999985
C    21.78999901   2.33999991  50.56999969
C    22.77000046   2.19000006  49.54999924
C    24.06999969   2.61000013  49.75999832
C    24.47999954   3.19000006  50.98999786
C    23.54000092   3.25999999  51.98999786
C    22.18000031   2.84999990  51.86000061
C    18.07999992   1.87999988  51.24000168
C    17.36999893   2.28999996  52.39999771
C    15.98999977   2.37000012  52.50000000
C    25.88000107   3.40999985  51.52000046
H    26.12826729   2.75741243  52.35701370
H    21.47000122   3.40000010  53.83999634
H    20.38999939   1.08999991  49.56999969
H    22.47999954   1.63000000  48.67000198
H    24.82000160   2.21000004  49.08000183
H    23.85999870   3.54999995  52.98999786
H    15.44999981   2.57999992  53.41999817
H    26.61000061   3.28000021  50.70999908
H    25.81999969   4.44999981  51.84999847
S    14.91000080   1.13000000  48.82999802
C    12.20999908   1.13999999  49.43000031
C    13.48999977   1.42000008  49.86000061
C    13.86000061   1.90999997  51.14999771
C    12.84000015   2.15000010  52.04999924
C    11.50000000   1.89999998  51.66999817
C    10.43000031   2.06999993  52.58999634
C     9.13000011   1.75000000  52.25999832
C     8.80999947   1.30999994  50.94999695
C     9.81999969   1.08000004  50.05000305
C    11.18000031   1.34000003  50.38000107
C    15.29000092   2.09000015  51.31999969
C    15.95999908   1.77999997  50.10000229
C    17.34000015   1.65000010  50.06999969
C     7.37999964   0.96000004  50.61000061
H     6.83938169   1.60020554  49.91288376
H    11.95000076   0.86000001  48.40999985
H    13.04999924   2.26999998  53.11000061
H    10.65999985   2.40999985  53.59000397
H     8.34999943   1.72000003  53.01000214
H     9.52999973   0.85000002  49.02000046
H    17.81999969   1.28999996  49.15999985
H     6.83000040   0.83999997  51.56000137
H     7.40999985  -0.01000000  50.10000229
