96

S    16.67000008   2.27999997  59.82999802
C    19.43000031   2.33999991  59.27000046
C    18.15000153   2.00999999  58.88000107
C    17.85000038   1.46000004  57.58999634
C    18.86000061   1.28999996  56.65999985
C    20.17000008   1.72000003  56.98999786
C    21.25000000   1.75999999  56.05999756
C    22.50999832   2.19000006  56.39999771
C    22.76000023   2.66999984  57.70999908
C    21.73000145   2.75000000  58.61999893
C    20.40999985   2.37000012  58.25000000
C    16.43000031   1.29999995  57.34000397
C    15.67999935   1.82999992  58.41999817
C    14.29999924   1.97000003  58.39000320
C    24.14999962   3.12000012  58.06999969
H    24.65633774   2.32127213  58.61199188
H    19.65999985   2.73000002  60.26000214
H    18.60999870   0.78000003  55.72999954
H    21.15999985   1.23000002  55.12000275
H    23.36000061   2.20000005  55.72000122
H    21.88999939   3.08999991  59.64000320
H    13.71999931   2.06999993  59.31000137
H    24.84999847   3.24000001  57.22999954
H    24.14999962   4.05000019  58.66000366
S    13.38000107   0.46999997  54.80999756
C    10.70000076   0.23000000  55.47999954
C    11.95000076   0.65999997  55.84999847
C    12.23000050   1.36999989  57.05999756
C    11.18999958   1.63000000  57.93000031
C     9.88000011   1.21000004  57.60000229
C     8.84000015   1.36000013  58.56999969
C     7.57999992   0.90000004  58.29000092
C     7.31999969   0.16000001  57.09999847
C     8.31999969   0.02000000  56.16000366
C     9.63000011   0.55000001  56.35000229
C    13.66000080   1.59999990  57.19999695
C    14.40999985   0.99000001  56.16000366
C    15.80000019   0.88000000  56.16000366
C     5.91000032  -0.20999999  56.70999908
H     5.50309515   0.41820389  55.91760635
H    10.50000000  -0.37000000  54.59999847
H    11.31999969   2.03999996  58.93000031
H     9.06999969   1.61000001  59.59999847
H     6.84000015   1.15999997  59.03999710
H     8.21000004  -0.48999998  55.20999908
H    16.31999969   0.50999999  55.28999710
H     5.42999983  -0.23000000  57.69000244
H     5.93999958  -1.25999999  56.37000275
S    17.87999916   2.79000020  53.66000366
C    20.56999969   2.86999989  53.08000183
C    19.31999969   2.46000004  52.68000031
C    19.02000046   1.81999993  51.44000244
C    20.07999802   1.58000004  50.58000183
C    21.40000153   1.86000001  50.98999786
C    22.49000168   1.70000005  50.08999634
C    23.74000168   2.22000003  50.34999847
C    24.02000046   2.73000002  51.65000153
C    22.98999977   2.94000006  52.52999878
C    21.64999962   2.59000015  52.19999695
C    17.57999992   1.74000001  51.25000000
C    16.81999969   2.26999998  52.32999802
C    15.44000053   2.26999998  52.43000031
C    25.42000008   3.14000010  52.04999924
H    25.75398064   2.52888465  52.88850784
H    20.66999817   3.33999991  54.05000305
H    19.86999893   1.38000000  49.52999878
H    22.25000000   1.24000001  49.13000107
H    24.54999924   2.06999993  49.65000153
H    23.22999954   3.33999991  53.50999832
H    14.94999981   2.56999993  53.34999847
H    25.97999954   2.91000009  51.13999939
H    25.29999924   4.21000004  52.25000000
S    14.32000065   0.94999999  48.85000229
C    11.61999893   0.94999999  49.62999725
C    12.94000053   1.25999999  49.91000366
C    13.28999996   1.82999992  51.18000031
C    12.25000000   2.22000003  52.01000214
C    10.90000057   1.87999988  51.77000046
C     9.86999989   2.11999989  52.72999573
C     8.56000042   1.88999999  52.37999725
C     8.23999977   1.08999991  51.24000168
C     9.22999954   0.79000002  50.34000015
C    10.55999947   1.25000000  50.52000046
C    14.73999977   1.80999994  51.31000137
C    15.44000053   1.38999999  50.14999771
C    16.82999992   1.28999996  50.15999603
C     6.84000015   0.54000002  51.09000397
H     6.30104446   1.02222347  50.27447510
H    11.36999989   0.28999999  48.81000137
H    12.53000069   2.79000020  52.88999939
H    10.11000061   2.45000005  53.74000168
H     7.88999987   2.15000010  53.18999863
H     9.02999973   0.12000000  49.50000000
H    17.35000038   0.82999998  49.31999969
H     6.32000017   0.56999999  52.04999924
H     6.84999990  -0.54000002  50.86999893
