96

S    17.53999901   1.52999997  59.86999893
C    20.22000122   1.98000002  59.23999786
C    18.98999977   1.52999997  58.83999634
C    18.71000099   1.03999996  57.52999878
C    19.71999931   1.01999998  56.59000015
C    21.02999878   1.42000008  56.95999908
C    22.11000061   1.43999994  56.03000259
C    23.38999939   1.75999999  56.39999771
C    23.54999924   2.25000000  57.71999741
C    22.56000137   2.38000011  58.66000366
C    21.27000046   1.89999998  58.29000092
C    17.29999924   0.69999999  57.39999771
C    16.50000000   1.00000000  58.53000259
C    15.11000061   1.00999999  58.48999786
C    24.96999931   2.64999986  58.06000137
H    25.34831810   2.11464405  58.93084335
H    20.45999908   2.49000001  60.17000198
H    19.50000000   0.68000007  55.58000183
H    21.94000053   1.12000000  55.00000000
H    24.23000145   1.57000005  55.73999786
H    22.73999977   2.66999984  59.68999863
H    14.55999947   1.33000004  59.36000061
H    25.69000053   2.42000008  57.27000427
H    25.06000137   3.72000003  58.31999969
S    14.11999893  -0.28000000  54.93000031
C    11.33999920  -0.28999999  55.54000092
C    12.64000034   0.02000000  55.86999893
C    12.97000027   0.52999997  57.16999817
C    11.97000027   0.79000002  58.08000183
C    10.64000034   0.39999998  57.81000137
C     9.52999973   0.51999998  58.68999863
C     8.26000023   0.16000001  58.31999969
C     7.94000053  -0.39000002  57.04999924
C     8.98999977  -0.50000000  56.16000366
C    10.32999992  -0.19000000  56.52999878
C    14.42000008   0.62000000  57.34000397
C    15.21000004   0.19000000  56.25000000
C    16.60000038   0.25000000  56.26999664
C     6.54999971  -0.78000003  56.59999847
H     6.12928629  -0.11684084  55.84414291
H    11.26000023  -0.82000005  54.59000015
H    12.15999985   1.21000004  59.06000137
H     9.76000023   0.94999999  59.66999817
H     7.39000034   0.35999998  58.94000244
H     8.89000034  -0.87000000  55.14999771
H    17.13000107   0.05000000  55.34000015
H     5.96000004  -0.67000002  57.51999664
H     6.50000000  -1.85000002  56.37000275
S    14.18000031  -2.46000004  52.09000015
C    11.52999973  -3.01999998  52.65999603
C    12.84000015  -3.12000012  53.04999924
C    13.32999992  -3.76999998  54.23999786
C    12.38999939  -4.26999998  55.12000275
C    11.03000069  -4.03999996  54.84000397
C    10.06999969  -4.59000015  55.73999786
C     8.73000050  -4.61000013  55.45999908
C     8.30000019  -3.95000005  54.27000046
C     9.15999985  -3.30000019  53.43000031
C    10.57000065  -3.40999985  53.62999725
C    14.77000046  -3.58000016  54.36999893
C    15.40999985  -2.96000004  53.27000046
C    16.76000023  -2.63000011  53.23999786
C     6.89000034  -4.25000000  53.82999802
H     6.50045919  -3.71172523  52.96592712
H    11.26000023  -2.53999996  51.72000122
H    12.61999989  -4.84000015  56.02000427
H    10.36999893  -5.03999996  56.69000244
H     8.05000019  -5.18000031  56.09000397
H     8.69000053  -2.96000004  52.50999832
H    17.25000000  -2.21000004  52.36999893
H     6.86999989  -5.31000042  53.54000092
H     6.15000010  -4.09000015  54.61999893
S    17.97000122  -3.77999997  56.84999847
C    20.58000183  -2.82999992  56.38999939
C    19.26000023  -2.92000008  56.00000000
C    18.85000038  -2.38999987  54.72999954
C    19.76000023  -1.85000002  53.85000229
C    21.12999916  -1.81999993  54.22999954
C    22.10000038  -1.24000001  53.36999893
C    23.40999985  -1.14999998  53.76999664
C    23.88999939  -1.87000012  54.89999771
C    22.95999908  -2.46000004  55.72999954
C    21.56999969  -2.31999993  55.51000214
C    17.46999931  -2.75000000  54.45000076
C    16.84000015  -3.38999987  55.54000092
C    15.52999973  -3.86000013  55.51000214
C    25.35000038  -2.20000005  55.11000061
H    25.68566132  -1.90004647  56.10270309
H    20.88999939  -3.38999987  57.27000427
H    19.42000008  -1.52999997  52.87000275
H    21.71999931  -0.86000001  52.43000031
H    24.07999992  -0.64000005  53.08000183
H    23.26000023  -3.23000002  56.44000244
H    15.07999992  -4.46000004  56.30000305
H    25.92000008  -1.72000003  54.31000137
H    25.51000214  -3.28999996  55.06000137
