96

S    17.64999962   1.98000002  59.99000168
C    20.34000015   2.09999990  59.31000137
C    19.07999992   1.64000010  59.00000000
C    18.70000076   1.13999999  57.71999741
C    19.73999977   0.90999997  56.83000183
C    21.05999947   1.34000003  57.09999847
C    22.09000015   1.13999999  56.13999939
C    23.36000061   1.59999990  56.38999939
C    23.64999962   2.26999998  57.61000061
C    22.67000008   2.53999996  58.54999924
C    21.37000084   2.00000000  58.34000015
C    17.25000000   1.02999997  57.57999802
C    16.53000069   1.44999993  58.72000122
C    15.14999962   1.51999998  58.87000275
C    25.05000114   2.63000011  58.04000092
H    25.47093010   1.95936584  58.78911209
H    20.59000015   2.75000000  60.13999939
H    19.45999908   0.62000000  55.81999969
H    21.83000183   0.56000000  55.26000214
H    24.13999939   1.29999995  55.70000076
H    23.00000000   3.05999994  59.45000076
H    14.65000057   1.72999990  59.80999756
H    25.78000069   2.66999984  57.21000290
H    25.07999802   3.68999982  58.31999969
S    13.99000072   0.11000000  55.27999878
C    11.30000019   0.07000000  56.00000000
C    12.60000038   0.41000003  56.32999802
C    12.97000027   0.90000004  57.62000275
C    11.94000053   1.14999998  58.50999832
C    10.59999943   0.78000003  58.25000000
C     9.55999947   0.88999999  59.22999954
C     8.28999996   0.44000000  58.99000168
C     8.02999973  -0.20999999  57.76000214
C     8.98999977  -0.38000000  56.77999878
C    10.27999973   0.19000000  56.97999954
C    14.40999985   1.08000004  57.77000046
C    15.06000042   0.64999998  56.59000015
C    16.45000076   0.63000000  56.50000000
C     6.58999968  -0.59000003  57.50999832
H     6.26453209  -0.03104490  56.63264847
H    11.09000015  -0.56000000  55.14999771
H    12.25000000   1.63000000  59.43000031
H     9.89999962   1.24000001  60.20000076
H     7.59999990   0.54000002  59.81999969
H     8.80999947  -1.00000000  55.90999985
H    16.93000031   0.25999999  55.59999847
H     5.97000027  -0.25000000  58.34999847
H     6.47000027  -1.66999996  57.35000229
S    18.18000031   2.25999999  53.99000168
C    20.85000038   2.49000001  53.27999878
C    19.55999947   2.21000004  52.88999939
C    19.15999985   1.88999999  51.55000305
C    20.17000008   1.61000001  50.65000153
C    21.52000046   1.80999994  51.03000259
C    22.50000000   1.72000003  50.00000000
C    23.78000069   2.13000011  50.30000305
C    24.17000008   2.64999986  51.56000137
C    23.19999886   2.82000017  52.52999878
C    21.87999916   2.33999991  52.30999756
C    17.71999931   1.65999997  51.42000198
C    17.06999969   1.85000002  52.67000198
C    15.69000053   1.86000001  52.78999710
C    25.53999901   3.15000010  51.97000122
H    25.89551163   2.61673260  52.85166931
H    21.11999893   3.08999991  54.15000153
H    19.85999870   1.29999995  49.65000153
H    22.23999977   1.47000003  48.97999573
H    24.48999786   2.15000010  49.47999954
H    23.38999939   3.09999990  53.55999756
H    15.36000061   1.99000001  53.81999969
H    26.18000031   3.00999999  51.09000397
H    25.46999931   4.23999977  52.11000061
S    14.48999977   0.82000005  49.16999817
C    11.82999992   0.65999997  49.93000031
C    13.12000084   0.94999999  50.28999710
C    13.47000027   1.36000013  51.62000275
C    12.46000099   1.43999994  52.56000137
C    11.13000011   1.05999994  52.25000000
C    10.03999901   1.10000002  53.15999985
C     8.76000023   0.75000000  52.81000137
C     8.47000027   0.34999999  51.46999741
C     9.47000027   0.32000002  50.52000046
C    10.78999996   0.67000002  50.90000153
C    14.92000008   1.50000000  51.68000031
C    15.62000084   1.18000007  50.48999786
C    17.00000000   1.16999996  50.33000183
C     7.03999996   0.04000000  51.11000061
H     6.80555201   0.53020990  50.16510391
H    11.68000031   0.19999999  48.95999908
H    12.71999931   1.81999993  53.54000092
H    10.22999954   1.50000000  54.15000153
H     7.97999954   0.87000000  53.54999924
H     9.31999969  -0.23000000  49.59000015
H    17.43000031   0.88999999  49.36999893
H     6.39999962   0.44000000  51.90000153
H     6.96000004  -1.04999995  51.00000000
