96

S    17.65999985   2.02999997  60.06000137
C    20.40999985   1.86000001  59.51000214
C    19.11000061   1.72000003  59.08000183
C    18.68999863   1.21000004  57.81000137
C    19.68000031   0.71000004  56.97999954
C    21.02000046   1.05999994  57.25000000
C    22.01000023   0.96000004  56.23000336
C    23.31000137   1.33000004  56.47999573
C    23.68000031   1.80999994  57.76000214
C    22.72000122   2.09999990  58.69999695
C    21.40000153   1.58999991  58.53000259
C    17.26000023   1.24000001  57.57999802
C    16.54000092   1.54999995  58.76999664
C    15.17000008   1.75999999  58.80000305
C    25.09000015   2.31999993  57.97999954
H    25.50737762   2.02288389  58.94208908
H    20.72999954   2.24000001  60.47999954
H    19.34999847   0.17999999  56.09000397
H    21.68999863   0.71000004  55.21999741
H    24.02000046   1.29999995  55.65999985
H    22.98999977   2.64999986  59.59999847
H    14.60999966   1.90999997  59.72000122
H    25.69999886   1.86000001  57.19999695
H    25.15000153   3.38999987  57.72999573
S    14.09999943   0.54000002  55.12000275
C    11.44000053   0.31000000  55.84000015
C    12.68000031   0.85000002  56.13999939
C    13.05999947   1.28000009  57.44999695
C    12.03999996   1.36000013  58.39000320
C    10.72000027   0.96000004  58.06999969
C     9.73999977   0.90000004  59.09999847
C     8.43999958   0.46999997  58.93000031
C     8.10000038  -0.01000000  57.63999939
C     9.02999973  -0.01000000  56.63000107
C    10.36999893   0.45000002  56.77000046
C    14.48999977   1.49000001  57.60000229
C    15.17000008   1.07000005  56.43000031
C    16.54999924   0.87000000  56.43000031
C     6.69000053  -0.50999999  57.43000031
H     6.22113419  -0.19031894  56.49937057
H    11.25000000  -0.12000000  54.86000061
H    12.32999992   1.70000005  59.38000107
H    10.06000042   1.31999993  60.05000305
H     7.77999973   0.52999997  59.79000092
H     8.84000015  -0.17999999  55.58000183
H    16.95999908   0.34000003  55.58000183
H     6.00000000  -0.14000000  58.20000076
H     6.67999983  -1.61000001  57.44999695
S    14.85999966  -1.63000000  52.18999863
C    12.17000008  -2.07999992  52.98999786
C    13.52000046  -2.14000010  53.22999954
C    13.96999931  -2.75000000  54.45000076
C    13.04999924  -3.35000014  55.27999878
C    11.64999962  -3.25000000  55.06999969
C    10.67000008  -3.86000013  55.90999985
C     9.35000038  -3.97000027  55.54000092
C     8.97000027  -3.37000012  54.31999969
C     9.82999992  -2.75000000  53.43999863
C    11.18999958  -2.63000011  53.86000061
C    15.42000008  -2.63000011  54.56999969
C    16.04999924  -2.06999993  53.43000031
C    17.42000008  -1.80999994  53.40000153
C     7.50999975  -3.52999973  53.96999741
H     7.09175730  -2.88491416  53.19731522
H    11.71000004  -1.65999997  52.09999847
H    13.31999969  -3.98000002  56.12999725
H    11.05999947  -4.46000004  56.72999954
H     8.59000015  -4.51999998  56.09000397
H     9.53999996  -2.31999993  52.49000168
H    18.02000046  -1.08999991  52.84000015
H     7.39000034  -4.57999992  53.67000198
H     6.98000002  -3.45999980  54.93000031
S    18.78000069  -3.25000000  56.84999847
C    21.42000008  -2.73999977  56.25999832
C    20.13000107  -2.80999994  55.77999878
C    19.65999985  -2.16000009  54.59999847
C    20.59999847  -1.54999995  53.80000305
C    21.96000099  -1.53999996  54.20000076
C    22.93000031  -1.05999994  53.27999878
C    24.27000046  -1.25999999  53.54000092
C    24.75000000  -1.75999999  54.78000259
C    23.80000114  -2.16000009  55.68999863
C    22.39999962  -2.14000010  55.43000031
C    18.20999908  -2.24000001  54.47000122
C    17.60000038  -2.87999988  55.58000183
C    16.21000099  -3.00000000  55.65000153
C    26.18000031  -2.22000003  54.97000122
H    26.55705833  -2.02079916  55.97311783
H    21.81999969  -3.28000021  57.11000061
H    20.43000031  -1.14999998  52.80000305
H    22.55000114  -0.74000001  52.30999756
H    24.96999931  -1.24000001  52.70999908
H    24.20000076  -2.61999989  56.58000183
H    15.80000019  -3.67000008  56.38999939
H    26.68000031  -1.64000010  54.19000244
H    26.22999954  -3.30000019  54.75000000
