96

S    17.56000137   1.58999991  60.12000275
C    20.29000092   1.80000007  59.61000061
C    19.03000069   1.48000002  59.13999939
C    18.68999863   0.97999996  57.84000015
C    19.71999931   0.96000004  56.91999817
C    21.02000046   1.38000000  57.30999756
C    22.06999969   1.42000008  56.36000061
C    23.34000015   1.87000012  56.65999985
C    23.61999893   2.34999990  57.97000122
C    22.65000153   2.24000001  58.93000031
C    21.35000038   1.72999990  58.67000198
C    17.25000000   0.97000003  57.63000107
C    16.46999931   1.08999991  58.81000137
C    15.08999920   1.00000000  58.92000198
C    25.00000000   2.87999988  58.30999756
H    25.44240952   2.35910034  59.15913773
H    20.43999863   2.26999998  60.56999969
H    19.56999969   0.75999999  55.86000061
H    21.68999863   1.42000008  55.34000015
H    24.11000061   1.88999999  55.90000153
H    22.77000046   2.77999997  59.86999893
H    14.59000015   1.04999995  59.87999725
H    25.55000114   2.75999999  57.36999893
H    24.80999947   3.94000006  58.54999924
S    13.96000004   0.75000000  55.13999939
C    11.31000042   0.41999999  55.90000153
C    12.60000038   0.71000004  56.27999878
C    12.94000053   0.93999994  57.64999771
C    11.97000027   0.73000002  58.61000061
C    10.60999966   0.48000002  58.29000092
C     9.61999989   0.41000003  59.31000137
C     8.28999996   0.37000000  58.96999741
C     8.00000000   0.07000000  57.61000061
C     8.92000008   0.09999999  56.59999847
C    10.29000092   0.38000000  56.88999939
C    14.39000034   0.97999996  57.70999908
C    15.10000038   0.90000004  56.49000168
C    16.48999977   0.88000000  56.45000076
C     6.52999973  -0.09999999  57.29999924
H     6.22512150   0.35377276  56.35700226
H    11.14999962   0.09999999  54.87999725
H    12.23000050   0.73000002  59.66999817
H     9.96000004   0.56000000  60.34000015
H     7.53000021   0.28999999  59.73999786
H     8.56999969   0.11000000  55.56999969
H    17.02000046   0.81000000  55.50000000
H     5.91000032   0.31000000  58.09999847
H     6.25999975  -1.16999996  57.29999924
S    14.52999973  -1.50000000  52.02999878
C    11.87000084  -2.10999990  52.61000061
C    13.20000076  -2.17999983  52.97999954
C    13.60000038  -2.91000009  54.15000153
C    12.65999985  -3.53999996  54.93000031
C    11.28000069  -3.42999983  54.65999985
C    10.25000000  -4.00000000  55.45999908
C     8.93000031  -3.65000010  55.30000305
C     8.56999969  -2.84000015  54.19000244
C     9.52999973  -2.36000013  53.33000183
C    10.90999985  -2.63000011  53.52000427
C    15.03000069  -2.75000000  54.36999893
C    15.64000034  -2.00999999  53.31999969
C    16.92000008  -1.50000000  53.47999954
C     7.11999989  -2.45000005  53.97999573
H     6.82807016  -2.98401833  53.07572556
H    11.49000072  -1.67999995  51.69000244
H    13.02999973  -4.07999992  55.79999924
H    10.59999943  -4.57999992  56.31000137
H     8.23999977  -3.91999984  56.09000397
H     9.15000057  -1.75000000  52.50999832
H    17.26000023  -0.93000001  52.62000275
H     6.51999998  -2.75999999  54.84000397
H     7.03999996  -1.35000002  53.95999908
S    18.20999908  -3.12999988  56.84999847
C    20.92000008  -2.68000007  56.18000031
C    19.57999992  -2.54999995  55.87999725
C    19.10000038  -1.82999992  54.73999786
C    20.00000000  -1.29999995  53.82999802
C    21.38000107  -1.44999993  54.09999847
C    22.29999924  -1.01999998  53.11000061
C    23.65999985  -1.11000001  53.34000015
C    24.14999962  -1.76999998  54.50000000
C    23.26999855  -2.30999994  55.41999817
C    21.86000061  -2.16999984  55.25000000
C    17.65999985  -1.95999992  54.56999969
C    17.04000092  -2.76999998  55.56000137
C    15.69000053  -3.09999990  55.54999924
C    25.62999916  -1.99000001  54.65000153
H    25.87881088  -1.80516922  55.69500351
H    21.22999954  -3.17000008  57.09000015
H    19.64999962  -0.97000003  52.84999847
H    21.93000031  -0.46999997  52.25000000
H    24.37000084  -0.59999996  52.70999908
H    23.69999886  -2.73999977  56.31999969
H    15.21999931  -3.60000014  56.39999771
H    26.17000198  -1.31999993  53.96999741
H    25.88999939  -3.01999998  54.36000061
