96

S    16.93000031   1.50999999  59.82999802
C    19.62000084   1.57000005  59.15999985
C    18.35000038   1.14999998  58.83999634
C    17.95999908   0.50999999  57.61000061
C    18.98999977   0.20999999  56.72999954
C    20.31999969   0.61000001  57.00000000
C    21.42000008   0.20999999  56.18999863
C    22.70999908   0.54000002  56.52999878
C    22.98000145   1.25999999  57.71999741
C    21.97999954   1.66999996  58.56999969
C    20.65000153   1.28999996  58.22999954
C    16.52000046   0.45000002  57.43000031
C    15.81999969   0.97999996  58.54999924
C    14.44000053   1.00999999  58.66000366
C    24.37000084   1.72000003  58.09999847
H    24.84661674   1.12956262  58.88250732
H    19.86999893   2.00000000  60.13000107
H    18.81999969  -0.39999998  55.84999847
H    21.17000198  -0.16000001  55.20000076
H    23.50000000   0.31000000  55.83000183
H    22.22999954   2.20000005  59.47999954
H    14.00000000   1.28999996  59.61000061
H    25.03000069   1.82999992  57.22999954
H    24.27000046   2.75000000  58.47000122
S    13.34000015  -0.34000003  55.06999969
C    10.62000084  -0.09000000  55.59999847
C    11.90999985   0.16000001  55.98999786
C    12.22000027   0.68000007  57.29000092
C    11.16000080   0.92000002  58.15000153
C     9.81000042   0.67000002  57.81000137
C     8.75000000   0.85000002  58.74000168
C     7.46999979   0.51999998  58.39000320
C     7.26999998   0.03000000  57.05999756
C     8.23000050  -0.14999999  56.09000397
C     9.53999996   0.25999999  56.45999908
C    13.64999962   0.63000000  57.56999969
C    14.35999966   0.09000000  56.45999908
C    15.72999954  -0.12000000  56.43000031
C     5.93999958  -0.59000003  56.72000122
H     5.44907093   0.05034202  55.98716354
H    10.22999954  -0.81000000  54.87999725
H    11.36999989   1.19999993  59.18000031
H     9.00000000   1.16999996  59.75000000
H     6.74000025   0.45000002  59.19000244
H     7.92999983  -0.57999998  55.13999939
H    16.21999931  -0.55000001  55.56000137
H     5.32000017  -0.51999998  57.63000107
H     6.06999969  -1.62000000  56.38000107
S    13.81000042  -2.14000010  51.86999893
C    11.16000080  -2.69000006  52.51999664
C    12.50000000  -2.91000009  52.77999878
C    12.96000004  -3.51000023  53.99000168
C    12.03999996  -4.05000019  54.86999893
C    10.67000008  -3.78999996  54.65000153
C     9.70000076  -4.13000011  55.63999939
C     8.36000061  -3.97000027  55.40999985
C     7.88000011  -3.30999994  54.23999786
C     8.80999947  -2.84000015  53.34000015
C    10.19999981  -3.12000012  53.47000122
C    14.40000057  -3.35000014  54.15000153
C    15.01000023  -2.63999987  53.08000183
C    16.36000061  -2.29999995  53.09999847
C     6.44999981  -2.94999981  53.94000244
H     6.06651306  -3.36899519  53.00968933
H    10.77000046  -2.14000010  51.66999817
H    12.35000038  -4.35999966  55.86999893
H     9.94999981  -4.55000019  56.60999680
H     7.60999966  -4.09999990  56.18000031
H     8.43000031  -2.24000001  52.50999832
H    16.72999954  -1.56000006  52.39999771
H     5.73999977  -3.30000019  54.69999695
H     6.40999985  -1.86000001  53.90999603
S    17.75000000  -4.00000000  56.40999603
C    20.40999985  -3.40999985  55.77999878
C    19.07999992  -3.35000014  55.43000031
C    18.59000015  -2.75999999  54.22000122
C    19.51000023  -2.16000009  53.37999725
C    20.88999939  -2.23000002  53.68000031
C    21.87999916  -1.71000004  52.81000137
C    23.22000122  -1.69000006  53.13000107
C    23.65999985  -2.44000006  54.25000000
C    22.76000023  -2.94999981  55.15999603
C    21.35999870  -2.80999994  54.91000366
C    17.13000107  -2.79000020  54.15999985
C    16.53000069  -3.51000023  55.22999573
C    15.15999985  -3.75999975  55.25000000
C    25.13999939  -2.43000007  54.56999969
H    25.36741066  -2.43710661  55.63599014
H    20.72999954  -4.03999996  56.60999680
H    19.23999977  -1.59999990  52.49000168
H    21.57999992  -1.43999994  51.79999924
H    23.88999939  -1.28999996  52.37999725
H    23.00000000  -3.48000002  56.06999969
H    14.73000050  -4.32999992  56.05999756
H    25.55999947  -1.47000003  54.22999954
H    25.73999786  -3.19999981  54.08000183
