96

S    16.44000053   1.52999997  60.04000092
C    19.12999916   1.65000010  59.31000137
C    17.86000061   1.22000003  59.02999878
C    17.52000046   0.83999997  57.69000244
C    18.50000000   0.68000007  56.72999954
C    19.82999992   1.07000005  57.02000046
C    20.79000092   1.03999996  55.97000122
C    22.10000038   1.35000002  56.29000092
C    22.46999931   1.71000004  57.61000061
C    21.53000069   1.81999993  58.61000061
C    20.15000153   1.56000006  58.33000183
C    16.09000015   0.61000001  57.55000305
C    15.39000034   1.08999991  58.68000031
C    14.00000000   1.13000000  58.76999664
C    23.88000107   2.23000002  57.76000214
H    24.46967316   1.69716322  58.50597382
H    19.37999916   2.16999984  60.22999573
H    18.29000092   0.32999998  55.72000122
H    20.53999901   0.71999997  54.95999908
H    22.88000107   1.38999999  55.52999878
H    21.77999878   2.26999998  59.56999969
H    13.53999996   1.51999998  59.68000031
H    24.46000099   2.25000000  56.83000183
H    23.69999886   3.25000000  58.13999939
S    12.90999985   0.04000000  55.08999634
C    10.18000031   0.03000000  55.70999908
C    11.47999954   0.22000000  56.12999725
C    11.82000065   0.69000000  57.43999863
C    10.77000046   0.81000000  58.33000183
C     9.40999985   0.63000000  57.95000076
C     8.30999947   0.73000002  58.85000229
C     7.03000021   0.41000003  58.47999954
C     6.75000000  -0.04000000  57.15999985
C     7.76999998  -0.16000001  56.25000000
C     9.11000061   0.14999999  56.63000107
C    13.26000023   0.79999995  57.63000107
C    13.96999931   0.43000001  56.45999908
C    15.34999943   0.27000001  56.40999603
C     5.35000038  -0.48999998  56.81999969
H     4.93837738   0.19840387  56.08191681
H     9.94000053  -0.29999998  54.71000290
H    11.00000000   0.85000002  59.38999939
H     8.63000011   1.04999995  59.84000397
H     6.15000010   0.57999998  59.09999847
H     7.63999987  -0.51999998  55.22999573
H    15.86999989   0.03000000  55.47999954
H     4.77999973  -0.56000000  57.75000000
H     5.32999992  -1.44999993  56.29000092
S    17.13999939   2.13000011  53.75999832
C    19.79999924   2.34999990  52.94000244
C    18.51000023   1.99000001  52.63999939
C    18.06999969   1.36999989  51.42000198
C    19.06999969   1.07000005  50.51000214
C    20.42000008   1.31999993  50.81999969
C    21.47000122   1.05999994  49.88999939
C    22.78000069   1.42000008  50.07999802
C    23.18000031   2.02999997  51.30000305
C    22.20999908   2.25999999  52.25000000
C    20.82999992   1.99000001  52.02999878
C    16.61999893   1.31999993  51.35000229
C    15.93999958   1.72000003  52.51999664
C    14.55000019   1.87000012  52.54000092
C    24.54999924   2.63000011  51.52999878
H    25.04976082   2.11596012  52.35103607
H    20.06999969   2.82999992  53.88000107
H    18.93000031   0.71000004  49.48999786
H    21.21999931   0.75999999  48.87000275
H    23.50000000   1.36999989  49.26000214
H    22.46000099   2.89999986  53.09000015
H    14.06000042   2.16000009  53.46000290
H    25.15000153   2.79000020  50.61999893
H    24.28999901   3.63999987  51.86999893
S    13.43999958   0.59999996  48.88000107
C    10.81999969   0.43000001  49.66999817
C    12.05000019   0.99000001  49.91000366
C    12.42000008   1.56000006  51.18000031
C    11.44999981   1.64000010  52.15000153
C    10.13000011   1.16999996  51.91999817
C     9.07999992   1.36999989  52.85999680
C     7.76999998   1.08999991  52.56999969
C     7.44999981   0.46000001  51.33999634
C     8.45000076   0.19999999  50.43000031
C     9.80000019   0.62000000  50.63000107
C    13.86999989   1.57000005  51.35000229
C    14.52999973   1.08000004  50.20000076
C    15.90999985   0.96000004  50.19000244
C     6.05999994  -0.09999999  51.13999939
H     5.54815006   0.53270316  50.41488266
H    10.67000008  -0.14999999  48.76999664
H    11.64999962   2.05999994  53.13000107
H     9.25000000   1.80999994  53.83999634
H     7.03999996   1.29999995  53.34000015
H     8.25000000  -0.37000000  49.52999878
H    16.43000031   0.61000001  49.29999924
H     5.46999979  -0.20999999  52.05999756
H     6.23000050  -1.13000000  50.80999756
