96

S    17.47999954   1.77999997  59.93000031
C    20.19000053   2.32999992  59.26000214
C    18.94000053   1.86000001  58.93000031
C    18.68000031   1.57000005  57.55000305
C    19.72999954   1.51999998  56.65000153
C    21.07000160   1.81999993  57.00000000
C    22.20000076   1.49000001  56.22000122
C    23.45000076   1.85000002  56.68000031
C    23.64999962   2.43000007  57.95999908
C    22.60000038   2.51999998  58.83999634
C    21.28999901   2.20000005  58.36999893
C    17.25000000   1.47000003  57.31999969
C    16.46000099   1.59999990  58.50000000
C    15.07999992   1.69000006  58.60000229
C    24.97999954   3.03999996  58.33000183
H    25.50004387   2.39172673  59.03526306
H    20.38999939   2.73000002  60.25000000
H    19.63000107   0.94999999  55.72999954
H    22.01000023   0.88000000  55.34000015
H    24.33000183   1.71000004  56.04999924
H    22.65000153   3.00999999  59.80999756
H    14.65999985   1.80999994  59.59000015
H    25.63999939   3.16000009  57.47000122
H    24.92000198   4.05999994  58.74000168
S    14.11000061   0.81000000  54.82999802
C    11.44999981   0.28000000  55.61000061
C    12.71999931   0.69999999  55.91999817
C    12.94999981   1.22000003  57.23999786
C    11.97999954   1.28999996  58.22999954
C    10.65999985   0.94999999  57.85999680
C     9.53999996   1.22000003  58.69999695
C     8.25000000   0.90999997  58.36999893
C     8.01999950   0.24000001  57.12999725
C     9.07999992  -0.03000000  56.29000092
C    10.42000008   0.32999998  56.58000183
C    14.37999916   1.43000007  57.41000366
C    15.11000061   1.30999994  56.20999908
C    16.50000000   1.29999995  56.14999771
C     6.57999992   0.29999998  56.69000244
H     6.35230350   1.14674628  56.04248810
H    11.18999958  -0.28000000  54.71000290
H    12.23000050   1.50000000  59.26000214
H     9.68000031   1.66999996  59.68000031
H     7.39000034   1.07000005  59.01000214
H     8.85999966  -0.48999998  55.33000183
H    17.02000046   1.13000000  55.21999741
H     5.88999987   0.25000000  57.54000092
H     6.38999987  -0.67000002  56.19999695
S    18.72999954   2.44000006  53.61000061
C    21.44000053   2.75000000  52.88000107
C    20.17000008   2.28999996  52.57999802
C    19.82999992   1.87999988  51.25999832
C    20.76000023   1.88999999  50.24000168
C    22.10000038   2.16000009  50.59000015
C    23.19999886   2.03999996  49.68999863
C    24.51999855   2.28999996  49.98000336
C    24.80999947   2.77999997  51.27999878
C    23.81000137   2.94999981  52.19999695
C    22.44999886   2.63999987  51.90000153
C    18.38999939   1.65999997  51.16000366
C    17.61999893   2.01999998  52.29999924
C    16.23999977   2.16000009  52.30999756
C    26.27000046   3.05000019  51.58000183
H    26.59706497   2.44564342  52.42610168
H    21.71999931   3.02999997  53.88999939
H    20.55999947   1.59999990  49.20999908
H    23.00000000   1.65000010  48.68999863
H    25.34000015   2.03999996  49.31000137
H    24.11000061   3.31999993  53.18000031
H    15.57000065   2.47000003  53.09999847
H    26.84000015   2.89000010  50.65999985
H    26.25999832   4.13999987  51.70999908
S    15.14000034   0.69000000  48.77999878
C    12.41000080   0.81000000  49.52000046
C    13.73000050   1.07000005  49.79000092
C    14.09000015   1.74000001  51.00000000
C    13.12999916   2.17999983  51.88999939
C    11.78999996   1.76999998  51.70000076
C    10.76000023   1.95999992  52.65999603
C     9.43000031   1.69000006  52.45999908
C     9.06999969   1.02999997  51.25999832
C    10.03999901   0.78000003  50.31000137
C    11.42000008   1.04999995  50.51000214
C    15.53999996   1.80000007  51.14999771
C    16.25000000   1.29999995  50.02999878
C    17.64000130   1.31999993  50.02999878
C     7.64999962   0.56999999  51.04000092
H     7.10958815   1.20285106  50.33604431
H    12.10999966   0.38000000  48.56999969
H    13.45000076   2.73999977  52.77000046
H    11.10000038   2.23000002  53.66000366
H     8.76000023   1.75000000  53.31999969
H     9.81999969   0.27000001  49.38000107
H    18.18000031   1.22000003  49.09000015
H     7.07999992   0.64000005  51.97000122
H     7.67000008  -0.48000002  50.70000076
