96

S    17.70000076   1.77999997  60.24000168
C    20.38000107   2.07999992  59.52000046
C    19.11999893   1.63000000  59.20000076
C    18.81999969   1.04999995  57.91999817
C    19.85000038   0.96000004  57.00000000
C    21.15999985   1.39999998  57.28000259
C    22.25000000   1.25999999  56.37000275
C    23.52000046   1.63000000  56.72999954
C    23.78999901   2.17999983  58.01000214
C    22.77000046   2.29999995  58.92000198
C    21.42999840   1.97000003  58.56999969
C    17.38999939   0.82000005  57.80000305
C    16.63999939   1.16999996  58.95000076
C    15.25000000   1.16999996  58.95999908
C    25.20000076   2.54999995  58.44999695
H    25.60732269   1.72105992  59.02882767
H    20.61000061   2.59999990  60.44000244
H    19.75000000   0.48000002  56.02000427
H    22.04000092   0.97999996  55.34000015
H    24.37000084   1.44999993  56.06999969
H    22.89999962   2.72000027  59.91000366
H    14.63999939   1.34000003  59.85000229
H    25.75000000   2.79000020  57.52999878
H    25.00000000   3.47000003  59.02000046
S    14.30999947   0.41000003  55.14999771
C    11.51000023   0.31000000  55.75000000
C    12.81999969   0.51999998  56.11000061
C    13.15000057   0.92000002  57.44999695
C    12.15999985   0.99000001  58.41999817
C    10.82999992   0.64000005  58.09000015
C     9.76000023   0.82000005  59.01000214
C     8.48999977   0.41999999  58.67000198
C     8.14999962  -0.02000000  57.36000061
C     9.15000057  -0.08000001  56.42000198
C    10.50000000   0.27000001  56.73999786
C    14.56999969   0.93000001  57.76000214
C    15.31999969   0.69000000  56.58000183
C    16.69999886   0.50999999  56.63000107
C     6.70000029  -0.32000002  57.04000092
H     6.42948961   0.02881655  56.04338074
H    11.16000080  -0.03000000  54.78000259
H    12.38999939   1.13000000  59.47000122
H     9.96000004   1.36999989  59.93000031
H     7.65999985   0.79999995  59.26000214
H     8.86999989  -0.19000000  55.38000107
H    17.23999977   0.25999999  55.72000122
H     6.17000008   0.09000000  57.90999985
H     6.70000029  -1.41000009  57.15000153
S    18.34000015   2.13000011  53.69999695
C    21.05999947   2.49000001  52.91999817
C    19.73999977   2.25000000  52.63000107
C    19.37999916   1.90999997  51.27999878
C    20.36000061   1.75999999  50.31000137
C    21.70999908   2.09000015  50.56999969
C    22.79000092   2.15000010  49.64000320
C    24.04999924   2.57999992  49.94999695
C    24.34999847   3.03999996  51.26999664
C    23.34000015   3.05000019  52.19999695
C    22.04999924   2.51999998  51.90000153
C    17.94000053   1.81999993  51.11000061
C    17.22999954   2.02999997  52.31999969
C    15.85000038   1.94999993  52.32999802
C    25.73999786   3.31999993  51.77999878
H    26.06712341   2.68708348  52.60492706
H    21.37000084   2.94000006  53.86000061
H    20.03999901   1.51999998  49.29999924
H    22.59000015   1.80000007  48.62999725
H    24.86000061   2.64999986  49.22999954
H    23.43000031   3.28999996  53.26000214
H    15.22999954   2.01999998  53.22999954
H    26.40000153   3.49000001  50.91999817
H    25.79000092   4.30999994  52.25000000
S    14.85000038   1.13000000  48.59000397
C    12.13999939   0.71999997  49.29000092
C    13.43000031   1.03999996  49.65999985
C    13.69999981   1.56000006  50.97000122
C    12.64999962   1.69000006  51.84999847
C    11.32999992   1.24000001  51.58000183
C    10.29999924   1.36999989  52.55000305
C     8.98999977   1.19000006  52.15000153
C     8.76000023   0.71000004  50.84000015
C     9.72999954   0.54000002  49.87999725
C    11.09000015   0.75999999  50.25000000
C    15.14000034   1.66999996  51.14999771
C    15.90000057   1.49000001  49.97000122
C    17.28999901   1.38999999  49.93999863
C     7.35000038   0.35999998  50.40999985
H     6.94654131   0.98996186  49.61724091
H    11.84000015   0.38000000  48.30999756
H    12.93000031   2.04999995  52.84000015
H    10.52999973   1.65999997  53.56999969
H     8.06999969   1.41000009  52.70000076
H     9.50000000   0.16000001  48.88999939
H    17.90999985   1.00999999  49.13999939
H     6.69000053   0.20999999  51.26999664
H     7.42999983  -0.64000005  49.95999908
