96

S    16.47999954   1.12000000  60.31000137
C    19.15999985   1.30999994  59.54000092
C    17.86999893   0.97000003  59.20999908
C    17.53000069   0.46000001  57.91999817
C    18.57999992   0.19000000  57.05999756
C    19.93000031   0.43000001  57.42000198
C    20.95999908   0.39999998  56.44000244
C    22.27000046   0.71999997  56.70000076
C    22.57999802   1.35000002  57.94000244
C    21.57999992   1.51999998  58.87000275
C    20.25000000   1.04999995  58.68000031
C    16.07999992   0.46000001  57.75000000
C    15.39000034   0.81000000  58.94000244
C    14.01999950   1.00999999  58.93000031
C    23.97999954   1.82999992  58.20999908
H    24.55729294   1.22419965  58.90845490
H    19.26000023   1.75000000  60.52999878
H    18.37000084  -0.14000000  56.04000092
H    20.72999954   0.08000001  55.43000031
H    23.02999878   0.56999999  55.93999863
H    21.84000015   2.09000015  59.75999832
H    13.48999977   1.28999996  59.84000397
H    24.44999886   2.01999998  57.22999954
H    23.85000038   2.82999992  58.64999771
S    12.98999977  -0.29999998  55.26000214
C    10.26999950  -0.50999999  56.00999832
C    11.54999924  -0.07000000  56.27999878
C    11.87000084   0.56999999  57.50999832
C    10.82999992   0.88000000  58.36999893
C     9.51000023   0.41000003  58.15000153
C     8.36999989   0.57999998  59.00000000
C     7.09000015   0.22000000  58.67000198
C     6.83000040  -0.32999998  57.38999939
C     7.86999989  -0.56000000  56.52999878
C     9.21000004  -0.28000000  56.93000031
C    13.30000019   0.65999997  57.77999878
C    14.00000000   0.14999999  56.65999985
C    15.38000011   0.17000002  56.56999969
C     5.46000004  -0.85000002  57.00000000
H     5.03182602  -0.20060253  56.23642349
H    10.11999989  -1.10000002  55.12000275
H    11.10000038   1.29999995  59.33000183
H     8.45000076   1.22000003  59.86999893
H     6.25000000   0.14000000  59.36000061
H     7.64999962  -1.13999999  55.63999939
H    15.92000008  -0.06000000  55.65000153
H     4.69999981  -0.88000000  57.80000305
H     5.66999960  -1.84000003  56.56999969
S    17.29999924   1.41000009  54.00000000
C    19.97999954   1.77999997  53.27999878
C    18.70000076   1.43000007  52.90000153
C    18.40999985   1.12000000  51.53999710
C    19.44000053   1.12000000  50.61000061
C    20.76999855   1.42000008  50.97999954
C    21.81999969   1.53999996  50.02999878
C    23.09999847   1.92000008  50.37000275
C    23.38999939   2.20000005  51.72999954
C    22.36999893   2.21000004  52.64999771
C    21.04000092   1.79000008  52.34000397
C    16.97000122   1.00999999  51.37000275
C    16.25000000   1.13999999  52.58999634
C    14.88000011   1.00999999  52.72999573
C    24.82000160   2.61999989  51.97999954
H    25.28258705   2.00084376  52.74860764
H    20.10000038   2.24000001  54.26000214
H    19.14999962   0.97000003  49.56999969
H    21.51000023   1.28999996  49.02000046
H    23.88000107   2.02999997  49.61999893
H    22.56000137   2.44000006  53.69999695
H    14.47999954   1.02999997  53.74000168
H    25.31999969   2.59999990  51.00999832
H    24.82999992   3.70000005  52.21000290
S    13.61999989   0.64000005  49.05000305
C    10.90999985   0.63000000  49.64000320
C    12.20000076   0.78000003  50.10000229
C    12.65999985   0.93000001  51.45000076
C    11.68000031   1.15999997  52.38999939
C    10.31999969   1.00999999  52.00000000
C     9.26999950   0.88999999  52.95999908
C     8.00000000   0.51999998  52.60000229
C     7.63999987   0.09999999  51.29000092
C     8.64999962   0.09999999  50.35999680
C     9.96000004   0.55000001  50.68999863
C    14.11000061   0.92000002  51.56999969
C    14.81999969   0.74000001  50.34999847
C    16.20000076   0.88000000  50.20999908
C     6.25000000  -0.35999998  50.90000153
H     5.75970840   0.22977123  50.12548065
H    10.81999969   0.22000000  48.63999939
H    11.92999935   1.13999999  53.44999695
H     9.52000046   1.04999995  54.00000000
H     7.27999973   0.46999997  53.41999817
H     8.45000076  -0.13000000  49.31999969
H    16.53000069   0.82000005  49.18000031
H     5.58000040  -0.25999999  51.76000214
H     6.34000015  -1.42000008  50.61000061
