96

S    17.28999901   1.70000005  59.84000397
C    19.92000008   2.09000015  59.06000137
C    18.68000031   1.58000004  58.74000168
C    18.36000061   1.19999993  57.39999771
C    19.37000084   1.22000003  56.45000076
C    20.65000153   1.74000001  56.73999786
C    21.75000000   1.65000010  55.84000015
C    22.98000145   2.10999990  56.22000122
C    23.22999954   2.69000006  57.50000000
C    22.18000031   2.79000020  58.37999725
C    20.89999962   2.28999996  58.04999924
C    16.92000008   1.00000000  57.31999969
C    16.18999863   1.24000001  58.50999832
C    14.80999947   1.15999997  58.55999756
C    24.61999893   3.07000017  57.95000076
H    24.96937561   2.44254827  58.76996613
H    20.22000122   2.30999994  60.07999802
H    19.12999916   0.86000001  55.45000076
H    21.64999962   0.92000002  55.04000092
H    23.80000114   1.97000003  55.52000046
H    22.40999985   2.99000001  59.43000031
H    14.28999996   1.36999989  59.50000000
H    25.29000092   2.84000015  57.09999847
H    24.71999931   4.13000011  58.20999908
S    13.63000011   0.35999998  54.91000366
C    10.88999939   0.27000001  55.61999893
C    12.20000076   0.54000002  55.93000031
C    12.61999989   0.86000001  57.25999832
C    11.64000034   0.97000003  58.22999954
C    10.29000092   0.64999998  57.95000076
C     9.19999981   0.79999995  58.86000061
C     7.88000011   0.50000000  58.57999802
C     7.55000019   0.04000000  57.28000259
C     8.52999973  -0.00000000  56.31000137
C     9.86999989   0.34999999  56.60999680
C    14.06999969   0.94999999  57.38999939
C    14.78999996   0.75999999  56.18999863
C    16.18000031   0.74000001  56.16000366
C     6.14000034  -0.39999998  56.95000076
H     5.72449207   0.13729471  56.09749603
H    10.60999966  -0.24000001  54.69999695
H    11.96000004   1.30999994  59.20999908
H     9.42000008   1.11000001  59.86999893
H     7.25000000   0.45000002  59.45999908
H     8.30000019  -0.38000000  55.31000137
H    16.65999985   0.46999997  55.21999741
H     5.65000010  -0.25999999  57.91999817
H     6.30999994  -1.43999994  56.65000153
S    14.34000015  -1.95999992  51.88000107
C    11.59999943  -2.50000000  52.39999771
C    12.92000008  -2.48000002  52.78999710
C    13.25000000  -2.89000010  54.13000107
C    12.28999996  -3.54999995  54.87999725
C    10.92000008  -3.48000002  54.54000092
C     9.89999962  -3.88000011  55.45000076
C     8.56999969  -3.84000015  55.12000275
C     8.21000004  -3.05000019  53.99000168
C     9.17000008  -2.57999992  53.13000107
C    10.55999947  -2.84999990  53.29999924
C    14.65999985  -2.72000027  54.40999985
C    15.34999943  -2.10999990  53.33000183
C    16.69000053  -1.75000000  53.34000015
C     6.74000025  -2.76999998  53.76999664
H     6.38295841  -3.34126711  52.91309738
H    11.31000042  -1.89999998  51.53999710
H    12.63000011  -3.94000006  55.84000015
H    10.18000031  -4.28000021  56.42000198
H     7.76999998  -4.17000008  55.79000092
H     8.85000038  -2.04999995  52.23999786
H    17.21999931  -1.35000002  52.48000336
H     6.06999969  -2.84000015  54.62999725
H     6.63000011  -1.74000001  53.40000153
S    17.93000031  -3.12000012  56.88000107
C    20.62000084  -2.61000013  56.16000366
C    19.27999878  -2.50999975  55.89000320
C    18.86999893  -1.94000006  54.64000320
C    19.78999901  -1.38000000  53.76999664
C    21.15999985  -1.63000000  54.00000000
C    22.15999985  -1.10000002  53.13000107
C    23.50000000  -1.23000002  53.39000320
C    23.92999840  -1.94999993  54.54000092
C    23.01000214  -2.32999992  55.48999786
C    21.61999893  -2.27999997  55.20000076
C    17.43000031  -2.06999993  54.48999786
C    16.79000092  -2.72000027  55.58000183
C    15.44000053  -3.00999999  55.54000092
C    25.35000038  -2.00000000  55.05000305
H    25.47109795  -1.21642327  55.79796219
H    20.95999908  -2.86999989  57.15999985
H    19.43000031  -0.83999997  52.90000153
H    21.96000099  -0.44000000  52.29000092
H    24.20000076  -0.71999997  52.74000168
H    23.31999969  -2.59999990  56.49000168
H    14.86999989  -3.28999996  56.43000031
H    25.92000008  -1.87000012  54.12000275
H    25.65999985  -3.00999999  55.35999680
