96

S    16.84000015   1.57000005  59.89999771
C    19.57999992   1.54999995  59.18000031
C    18.27000046   1.21000004  58.93000031
C    17.86999893   0.79999995  57.62000275
C    18.86000061   0.55000001  56.69000244
C    20.22999954   0.82000005  56.95999908
C    21.18000031   0.75000000  55.90000153
C    22.52000046   0.97999996  56.11999893
C    22.92000008   1.41000009  57.41000366
C    21.98999786   1.69000006  58.39000320
C    20.61000061   1.38000000  58.22000122
C    16.43000031   0.71999997  57.43000031
C    15.72999954   1.11000001  58.60000229
C    14.34999943   1.23000002  58.60000229
C    24.34000015   1.87999988  57.57999802
H    24.87164116   1.42633343  58.41644669
H    19.88000107   1.97000003  60.13999939
H    18.50000000   0.17999999  55.72999954
H    20.76999855   0.25999999  55.01999664
H    23.09999847   1.03999996  55.20000076
H    22.30999947   2.23000002  59.27999878
H    13.82999992   1.53999996  59.50000000
H    24.93999863   1.72999990  56.66999817
H    24.34999847   2.96999979  57.74000168
S    13.36999989   0.09000000  54.87999725
C    10.70000076  -0.07000000  55.54999924
C    11.95000076   0.35999998  55.90000153
C    12.25000000   0.82000005  57.22999954
C    11.23000050   0.96000004  58.15000153
C     9.90999985   0.61000001  57.80000305
C     8.82000065   0.78000003  58.69999695
C     7.57999992   0.25999999  58.40000153
C     7.34000015  -0.39999998  57.16999817
C     8.34999943  -0.44000000  56.24000168
C     9.65999985   0.03000000  56.51000214
C    13.69999981   0.90999997  57.39999771
C    14.42000008   0.45000002  56.26999664
C    15.80999947   0.39000002  56.20999908
C     5.98999977  -1.01999998  56.88999939
H     5.42896032  -0.63650465  56.03778839
H    10.47999954  -0.67000002  54.65999985
H    11.39000034   1.41000009  59.13000107
H     9.11999989   1.12000000  59.68999863
H     6.78999996   0.35999998  59.13999939
H     8.26000023  -0.97000003  55.28999710
H    16.29999924   0.39999998  55.24000168
H     5.38999987  -0.76999998  57.77000046
H     6.10000038  -2.10999990  56.88000107
S    14.09000015  -1.80999994  52.21000290
C    11.50000000  -2.73999977  52.61000061
C    12.84000015  -2.86999989  52.88000107
C    13.27000046  -3.51000023  54.09000015
C    12.34000015  -3.98000002  54.99000168
C    10.95000076  -3.86999989  54.73999786
C     9.90999985  -4.32000017  55.59999847
C     8.56999969  -4.23999977  55.31000137
C     8.18000031  -3.53999996  54.13000107
C     9.13999939  -3.07999992  53.26000214
C    10.52999973  -3.22000003  53.52000427
C    14.68000031  -3.28000021  54.38000107
C    15.24000072  -2.38999987  53.43000031
C    16.59000015  -2.03999996  53.40000153
C     6.70000029  -3.31999993  53.92000198
H     6.26728821  -4.10739326  53.30285263
H    11.17000008  -1.98000002  51.90000153
H    12.58999920  -4.34999990  55.97999954
H    10.26999950  -4.69000006  56.55000305
H     7.82000017  -4.55000019  56.03000259
H     8.86999989  -2.64999986  52.29999924
H    17.02999878  -1.52999997  52.54000092
H     6.19999981  -3.17999983  54.87999725
H     6.53999996  -2.30999994  53.52000427
S    17.90999985  -3.61999989  56.86000061
C    20.56999969  -3.16000009  56.25999832
C    19.26000023  -3.00999999  55.87999725
C    18.77000046  -2.43000007  54.66999817
C    19.69000053  -1.84000003  53.81999969
C    21.07000160  -2.00999999  54.09999847
C    21.96000099  -1.36999989  53.18999863
C    23.29000092  -1.25000000  53.50999832
C    23.75999832  -2.00999999  54.61999893
C    22.90999985  -2.66999984  55.47999954
C    21.48999977  -2.63000011  55.31999969
C    17.32999992  -2.54999995  54.47000122
C    16.75000000  -3.19000006  55.59000015
C    15.44000053  -3.63999987  55.50000000
C    25.15999985  -1.75000000  55.12000275
H    25.40100479  -2.26745319  56.04858017
H    20.78000069  -3.73000002  57.15999985
H    19.32999992  -1.46000004  52.87000275
H    21.45999908  -0.79000002  52.41000366
H    23.87000084  -0.51999998  52.95999908
H    23.29999924  -3.16000009  56.36000061
H    14.91000080  -4.13999987  56.30000305
H    25.39999962  -0.69000000  55.26000214
H    25.75000000  -2.07999992  54.26000214
