96

S    16.94000053   1.36000013  60.06000137
C    19.63000107   1.62000000  59.31000137
C    18.35000038   1.19999993  59.00000000
C    18.06999969   0.69999999  57.70000076
C    19.10000038   0.43000001  56.81000137
C    20.36000061   0.99000001  57.11000061
C    21.50000000   0.85000002  56.26999664
C    22.79999924   1.08999991  56.63000107
C    23.09000015   1.62000000  57.91999817
C    22.03000069   1.88999999  58.75000000
C    20.69000053   1.59999990  58.36999893
C    16.62999916   0.54000002  57.55000305
C    15.88999939   1.01999998  58.66000366
C    14.51000023   1.13000000  58.67000198
C    24.51000023   2.00999999  58.25000000
H    24.92719269   1.41603065  59.06317139
H    19.86999893   2.13000011  60.25000000
H    18.88000107  -0.06000000  55.86000061
H    21.32999802   0.35999998  55.31999969
H    23.64000130   0.82000005  56.00000000
H    22.15999985   2.30999994  59.73999786
H    14.01000023   1.51999998  59.54999924
H    25.20000076   1.86000001  57.42000198
H    24.77000046   3.05999994  58.44999695
S    13.45000076   0.01000000  54.95999908
C    10.75000000  -0.16000001  55.61000061
C    12.02000046   0.20999999  55.98999786
C    12.38000011   0.75999999  57.27000427
C    11.36999989   0.97999996  58.18999863
C    10.06000042   0.65999997  57.77000046
C     9.02000046   0.81000000  58.73000336
C     7.72000027   0.46000001  58.44999695
C     7.34000015  -0.19000000  57.23999786
C     8.36000061  -0.41999999  56.35000229
C     9.68999958   0.07000000  56.51000214
C    13.81000042   0.71999997  57.52999878
C    14.50000000   0.29999998  56.36000061
C    15.88000107   0.13000000  56.44000244
C     5.88999987  -0.41999999  56.86000061
H     5.49063635   0.27175513  56.11832428
H    10.51000023  -0.57999998  54.62999725
H    11.54999924   1.36000013  59.19000244
H     9.31999969   1.21000004  59.68999863
H     6.98999977   0.73000002  59.20000076
H     8.10999966  -0.97999996  55.45999908
H    16.44000053  -0.19000000  55.56000137
H     5.38999987  -0.32999998  57.83000183
H     5.78000021  -1.44999993  56.49000168
S    13.94999981  -2.04999995  51.81999969
C    11.26999950  -2.49000001  52.35000229
C    12.56999969  -2.59999990  52.78999710
C    12.97000027  -3.09999990  54.06999969
C    11.97000027  -3.61000013  54.86999893
C    10.59999943  -3.61999989  54.50000000
C     9.52999973  -4.05000019  55.33000183
C     8.19999981  -3.86000013  55.04000092
C     7.86000013  -3.25000000  53.80000305
C     8.89999962  -2.96000004  52.95999908
C    10.29999924  -3.05000019  53.20999908
C    14.42000008  -3.07000017  54.22999954
C    15.06999969  -2.42000008  53.15000153
C    16.45000076  -2.29999995  53.15000153
C     6.48999977  -2.63999987  53.60000229
H     5.86129665  -3.34014654  53.04988861
H    10.95999908  -1.93000007  51.46999741
H    12.10999966  -3.91000009  55.90000153
H     9.89999962  -4.50000000  56.25000000
H     7.48000050  -4.07000017  55.81999969
H     8.63000011  -2.38000011  52.08000183
H    16.88999939  -1.59999990  52.44999695
H     6.06999969  -2.51999998  54.61000061
H     6.50000000  -1.65999997  53.11000061
S    17.65999985  -3.65999985  56.66999817
C    20.32999992  -3.08999991  56.14999771
C    19.03000069  -3.01999998  55.72999954
C    18.60999870  -2.50000000  54.45999908
C    19.55000114  -1.90999997  53.63999939
C    20.92000008  -2.05999994  53.99000168
C    21.91999817  -1.63000000  53.08000183
C    23.25000000  -1.84000003  53.36999893
C    23.64000130  -2.47000003  54.58000183
C    22.70999908  -2.75000000  55.54999924
C    21.31999969  -2.66999984  55.22999573
C    17.19000053  -2.73000002  54.26000214
C    16.50000000  -3.25000000  55.38999939
C    15.14000034  -3.50000000  55.34999847
C    25.12000084  -2.63999987  54.85000229
H    25.41929817  -1.89887905  55.59112549
H    20.65999985  -3.52999973  57.09000015
H    19.34000015  -1.39999998  52.70999908
H    21.59000015  -1.04999995  52.22000122
H    24.07999992  -1.36000013  52.87000275
H    23.01000214  -3.37000012  56.38999939
H    14.56999969  -3.98999977  56.13999939
H    25.75000000  -2.36000013  54.00000000
H    25.29000092  -3.63999987  55.27000046
