96

S    17.57999992   1.72000003  59.78000259
C    20.29000092   1.80000007  59.09000015
C    18.98999977   1.52999997  58.73000336
C    18.65999985   1.03999996  57.42000198
C    19.71999931   0.93000001  56.55000305
C    21.04999924   1.36999989  56.77999878
C    22.07999992   1.28999996  55.80999756
C    23.36999893   1.57000005  56.18999863
C    23.68000031   1.98000002  57.51999664
C    22.65999985   2.21000004  58.40999985
C    21.31000137   1.87000012  58.11000061
C    17.21999931   1.02999997  57.22999954
C    16.51000023   1.29999995  58.43000031
C    15.11999989   1.36999989  58.52000427
C    25.10999870   2.30999994  57.88999939
H    25.53781700   1.70392752  58.68859100
H    20.58000183   2.11999989  60.08999634
H    19.50000000   0.55000001  55.54999924
H    21.94000053   0.82000005  54.84000397
H    24.15999985   1.48000002  55.45000076
H    22.86000061   2.57999992  59.40999985
H    14.61999989   1.43000007  59.47999954
H    25.78000069   2.14000010  57.02999878
H    25.22999954   3.37000012  58.13999939
S    13.86999989   0.16000001  55.01999664
C    11.16000080   0.09999999  55.75000000
C    12.46000099   0.41000003  56.06999969
C    12.89000034   0.97000003  57.31999969
C    11.89000034   1.13000000  58.26000214
C    10.52999973   0.85000002  57.97000122
C     9.51000023   1.02999997  58.95000076
C     8.18000031   0.99000001  58.57999802
C     7.76999998   0.52999997  57.29999924
C     8.73999977   0.24000001  56.38000107
C    10.13000011   0.39000002  56.66999817
C    14.32999992   1.18000007  57.37999725
C    15.01999950   0.88000000  56.18000031
C    16.39999962   0.82999998  56.11000061
C     6.30999994   0.19000000  57.08000183
H     5.94533253   0.68337339  56.17905807
H    10.88999939  -0.35999998  54.79999924
H    12.15999985   1.57000005  59.22000122
H     9.76000023   1.16999996  60.00000000
H     7.49000025   1.34000003  59.34000015
H     8.36000061  -0.14000000  55.43000031
H    16.87999916   0.48000002  55.20000076
H     5.68000031   0.48000002  57.94000244
H     6.11000013  -0.87000000  56.93999863
S    18.44000053   2.21000004  53.74000168
C    21.11999893   2.71000004  53.04999924
C    19.85999870   2.29999995  52.68000031
C    19.54000092   1.82999992  51.36000061
C    20.59999847   1.79000008  50.47000122
C    21.94000053   2.05999994  50.83000183
C    23.05000114   1.76999998  49.98000336
C    24.34000015   2.07999992  50.33000183
C    24.60000038   2.73000002  51.56000137
C    23.54000092   2.94999981  52.42000198
C    22.20000076   2.56999993  52.15000153
C    18.11000061   1.62000000  51.20999908
C    17.35000038   1.81999993  52.38999939
C    15.97000027   1.88999999  52.49000168
C    26.02999878   3.10999990  51.86000061
H    26.38514137   2.52046537  52.70523453
H    21.44000053   3.09999990  54.01000214
H    20.40999985   1.54999995  49.43000031
H    22.88999939   1.48000002  48.95000076
H    25.19000053   2.06999993  49.65000153
H    23.68999863   3.25999999  53.44999695
H    15.36999893   2.00999999  53.39000320
H    26.63999939   2.94999981  50.96000290
H    26.11999893   4.17000008  52.11999893
S    14.92000008   0.97999996  48.74000168
C    12.17000008   0.92000002  49.40999985
C    13.48000050   1.13999999  49.75999832
C    13.81999969   1.43000007  51.12999725
C    12.81999969   1.52999997  52.06999969
C    11.46999931   1.30999994  51.72999954
C    10.43000031   1.31999993  52.70000076
C     9.21000004   0.71000004  52.50000000
C     8.88000011   0.35999998  51.17000198
C     9.77999973   0.59000003  50.14999771
C    11.13000011   0.99000001  50.35999680
C    15.25000000   1.63000000  51.31000137
C    15.97000027   1.38999999  50.11000061
C    17.35999870   1.35000002  50.06000137
C     7.55999994  -0.32000002  50.89000320
H     6.70604610   0.34893039  50.78325653
H    11.90000057   0.64000005  48.39000320
H    13.20000076   1.66999996  53.09000015
H    10.70000076   1.69000006  53.68000031
H     8.55000019   0.59000003  53.36000061
H     9.53999996   0.32999998  49.12000275
H    17.80999947   1.05999994  49.10999680
H     7.46000004  -1.03999996  51.70999908
H     7.64999962  -0.94999999  50.00000000
