96

S    17.35000038   1.24000001  60.20999908
C    20.06000137   1.53999996  59.52999878
C    18.78000069   1.16999996  59.15999985
C    18.48999977   0.85000002  57.80000305
C    19.48999977   0.76999998  56.84000015
C    20.81000137   1.14999998  57.16999817
C    21.88999939   1.18000007  56.25000000
C    23.15999985   1.49000001  56.66999817
C    23.47999954   1.74000001  58.02999878
C    22.40999985   1.84000003  58.88999939
C    21.05999947   1.54999995  58.53000259
C    17.05000114   0.79000002  57.60000229
C    16.31000137   1.01999998  58.79000092
C    14.93000031   1.10000002  58.81999969
C    24.86999893   2.09000015  58.50000000
H    25.14774323   1.46329927  59.34746933
H    20.43999863   1.97000003  60.45000076
H    19.27999878   0.48000002  55.80999756
H    21.64999962   0.79000002  55.26000214
H    23.85999870   1.76999998  55.89000320
H    22.65000153   2.29999995  59.85000229
H    14.40999985   1.13999999  59.77000427
H    25.55000114   1.80999994  57.68000031
H    25.10999870   3.15000010  58.64999771
S    13.94000053   0.16000001  55.12000275
C    11.21000099  -0.19999999  55.72000122
C    12.48000050   0.14999999  56.12999725
C    12.76999950   0.64999998  57.43999863
C    11.76000023   0.79000002  58.37999725
C    10.44000053   0.50000000  57.95999908
C     9.38000011   0.43000001  58.90999603
C     8.10999966   0.01000000  58.56999969
C     7.79999971  -0.20999999  57.19999695
C     8.80999947  -0.31000000  56.26999664
C    10.14999962   0.00000000  56.63999939
C    14.19000053   0.90000004  57.63999939
C    14.96000099   0.64000005  56.49000168
C    16.35000038   0.69999999  56.38999939
C     6.37000036  -0.48000002  56.79999924
H     5.99307013   0.12451065  55.97502136
H    10.98999977  -0.68000007  54.78000259
H    11.95000076   1.12000000  59.38999939
H     9.61999989   0.71999997  59.92000198
H     7.26000023   0.14000000  59.22999954
H     8.64999962  -0.78000003  55.30000305
H    16.84999847   0.57999998  55.44000244
H     5.78000021  -0.32000002  57.70000076
H     6.28000021  -1.53999996  56.52000046
S    14.27999973  -1.75000000  51.95999908
C    11.65999985  -2.24000001  52.70000076
C    13.00000000  -2.42000008  52.98999786
C    13.43999958  -3.05999994  54.19000244
C    12.51000023  -3.79999995  54.88999939
C    11.11999989  -3.72000003  54.59999847
C    10.10000038  -4.32999992  55.37000275
C     8.76999950  -4.05000019  55.15999603
C     8.32999992  -3.28000021  54.05000305
C     9.30000019  -2.64999986  53.31999969
C    10.69000053  -2.86999989  53.52000427
C    14.88999939  -2.96999979  54.29000092
C    15.43000031  -2.23000002  53.22000122
C    16.77000046  -1.84000003  53.29999924
C     6.88000011  -3.22000003  53.61000061
H     6.78684664  -3.94372940  52.80028534
H    11.19999981  -1.56000006  52.00000000
H    12.79999924  -4.53999996  55.63000107
H    10.42000008  -5.00000000  56.16000366
H     8.03999996  -4.63999987  55.70999908
H     9.02999973  -2.00000000  52.48000336
H    17.28999901  -1.39999998  52.44999695
H     6.30000019  -3.53999996  54.47999954
H     6.57000017  -2.22000003  53.29000092
S    18.15999985  -3.37000012  56.77999878
C    20.76000023  -2.70000005  56.02000427
C    19.42000008  -2.72000027  55.70999908
C    18.93000031  -2.05999994  54.54000092
C    19.80999947  -1.42000008  53.68000031
C    21.19999886  -1.51999998  53.90999603
C    22.13999939  -0.93000001  53.02000046
C    23.50000000  -0.90000004  53.25000000
C    23.97999954  -1.34000003  54.51000214
C    23.08000183  -1.92000008  55.37000275
C    21.68999863  -2.09000015  55.13999939
C    17.50000000  -2.29999995  54.40000153
C    16.97000122  -2.98000002  55.52000046
C    15.62999916  -3.33999991  55.43000031
C    25.43000031  -1.21000004  54.93999863
H    25.66461182  -1.50148785  55.96376419
H    21.07999992  -3.03999996  57.00000000
H    19.44000053  -0.88999999  52.78999710
H    21.73999977  -0.46000001  52.12999725
H    24.23999977  -0.50000000  52.56999969
H    23.40999985  -2.28999996  56.33999634
H    15.11000061  -3.84999990  56.23000336
H    25.73999786  -0.17000002  54.79000092
H    25.93000031  -1.84000003  54.20000076
