96

S    17.64999962   1.94000006  59.98000336
C    20.36000061   2.19000006  59.33000183
C    19.07999992   1.87000012  58.94000244
C    18.73999977   1.54999995  57.57999802
C    19.79999924   1.44999993  56.69000244
C    21.14000130   1.72999990  57.04000092
C    22.21999931   1.62000000  56.11999893
C    23.51000023   1.94000006  56.47999573
C    23.80000114   2.39999986  57.78999710
C    22.77000046   2.48000002  58.69999695
C    21.40999985   2.19000006  58.37999725
C    17.30999947   1.38000000  57.39999771
C    16.59000015   1.75000000  58.56999969
C    15.21000004   1.86000001  58.64999771
C    25.23999977   2.82000017  58.00000000
H    25.63263512   2.19178343  58.79954910
H    20.55000114   2.56000018  60.34000015
H    19.50000000   1.24000001  55.66999817
H    21.98999786   1.22000003  55.13000107
H    24.21999931   1.89999998  55.65999985
H    23.00000000   2.94000006  59.65999985
H    14.80000019   2.25999999  59.56999969
H    25.81999969   2.69000006  57.08000183
H    25.22999954   3.86999989  58.31999969
S    14.01000023   0.63000000  55.10000229
C    11.31000042   0.69000000  55.72999954
C    12.60000038   1.00000000  56.11000061
C    12.94999981   1.57000005  57.37999725
C    11.96000004   1.80000007  58.31999969
C    10.62999916   1.53999996  57.93000031
C     9.61000061   1.70000005  58.90999603
C     8.32999992   1.25999999  58.72000122
C     8.00000000   0.81000000  57.42000198
C     8.92000008   0.59000003  56.42000198
C    10.27999973   0.96000004  56.65999985
C    14.39000034   1.58000004  57.54000092
C    15.10000038   1.04999995  56.44000244
C    16.48999977   0.97999996  56.33999634
C     6.57000017   0.45000002  57.09999847
H     6.27912903   0.89694774  56.14934921
H    11.06999969   0.27000001  54.75999832
H    12.25000000   2.00999999  59.34999847
H     9.81999969   1.99000001  59.93999863
H     7.55999994   1.01999998  59.45000076
H     8.52999973   0.28999999  55.45000076
H    16.90000153   0.71999997  55.37000275
H     5.89999962   0.63000000  57.95000076
H     6.57999992  -0.64999998  57.05999756
S    14.32000065  -1.50000000  52.08000183
C    11.63000011  -1.84000003  52.76000214
C    12.94999981  -2.13000011  53.02000046
C    13.38999939  -2.91000009  54.13999939
C    12.39999962  -3.33999991  55.00000000
C    11.03000069  -3.05999994  54.80999756
C    10.03999901  -3.55999994  55.70999908
C     8.71999931  -3.47000003  55.31999969
C     8.30999947  -2.61999989  54.27000046
C     9.25000000  -2.03999996  53.44999695
C    10.62999916  -2.32999992  53.62999725
C    14.84000015  -2.84999990  54.27999878
C    15.48999977  -2.07999992  53.27000046
C    16.76000023  -1.54999995  53.43999863
C     6.85999966  -2.59999990  53.82999802
H     6.69638109  -3.39675331  53.10438538
H    11.36999989  -1.22000003  51.90000153
H    12.65999985  -3.91999984  55.87999725
H    10.39999962  -4.17000008  56.52999878
H     7.94000053  -4.09999990  55.73999786
H     9.00000000  -1.47000003  52.56000137
H    17.20000076  -0.83999997  52.75000000
H     6.21999979  -2.63999987  54.72000122
H     6.67999983  -1.58000004  53.44999695
S    18.05999947  -3.10999990  56.81999969
C    20.63999939  -2.47000003  56.31999969
C    19.32999992  -2.13000011  56.06999969
C    18.86000061  -1.50999999  54.86999893
C    19.77000046  -0.93999994  53.99000168
C    21.14000130  -1.25000000  54.18000031
C    22.09000015  -0.81000000  53.22000122
C    23.43000031  -0.96000004  53.50000000
C    23.88000107  -1.65000010  54.65999985
C    22.95000076  -2.09000015  55.58000183
C    21.54999924  -1.90999997  55.38999939
C    17.46999931  -1.86000001  54.61000061
C    16.87000084  -2.73000002  55.54999924
C    15.57000065  -3.19999981  55.41999817
C    25.29999924  -2.15000010  54.77000427
H    25.70627785  -1.65818810  55.65383530
H    20.89999962  -3.02999997  57.21000290
H    19.45000076  -0.57999998  53.02000046
H    21.76000214  -0.44000000  52.25000000
H    24.17000008  -0.52999997  52.84999847
H    23.22000122  -2.73000002  56.42000198
H    15.06999969  -3.48000002  56.33999634
H    25.81000137  -1.94000006  53.81999969
H    25.30999947  -3.19999981  55.07999802
