96

S    17.04000092   2.11999989  59.99000168
C    19.77000046   1.94999993  59.38000107
C    18.46999931   1.65999997  59.03999710
C    18.12000084   1.21000004  57.72999573
C    19.13999939   0.90000004  56.84999847
C    20.48999977   1.24000001  57.09999847
C    21.56999969   1.03999996  56.18999863
C    22.85000038   1.44999993  56.51000214
C    23.06999969   2.22000003  57.68000031
C    22.04000092   2.43000007  58.56999969
C    20.76999855   1.81999993  58.39000320
C    16.68000031   1.00999999  57.57999802
C    15.98000050   1.59999990  58.67000198
C    14.59000015   1.70000005  58.61999893
C    24.47999954   2.70000005  57.95000076
H    24.95785332   2.04384542  58.67747498
H    19.92000008   2.59999990  60.24000168
H    18.73999977   0.63000000  55.87999725
H    21.34000015   0.75999999  55.17000198
H    23.62999916   1.33000004  55.76000214
H    22.09000015   3.02999997  59.47999954
H    14.11999893   2.20000005  59.45999908
H    25.05000114   2.56000018  57.02000046
H    24.51000023   3.75000000  58.25000000
S    13.45000076   0.45000002  55.04000092
C    10.72000027   0.54000002  55.68000031
C    12.02999973   0.71000004  56.05999756
C    12.41000080   1.08000004  57.38999939
C    11.43000031   1.34000003  58.33000183
C    10.07999992   1.04999995  58.02000046
C     9.10000038   0.97999996  59.03999710
C     7.82000017   0.56999999  58.74000168
C     7.44000006   0.32000002  57.38999939
C     8.38000011   0.32000002  56.38999939
C     9.71000004   0.74000001  56.65999985
C    13.86000061   1.18000007  57.54000092
C    14.55999947   0.71000004  56.39999771
C    15.93999958   0.57999998  56.47999573
C     6.01000023  -0.14000000  57.27000427
H     5.58330584   0.17290907  56.31705093
H    10.52000046  -0.09999999  54.82999802
H    11.57999992   1.44999993  59.40000153
H     9.51000023   1.21000004  60.00999832
H     7.14999962   0.34999999  59.56999969
H     8.10999966   0.02000000  55.38000107
H    16.48999977   0.32999998  55.58000183
H     5.46000004   0.27000001  58.13000107
H     6.05999994  -1.23000002  57.27000427
S    17.52000046   2.38000011  54.02999878
C    20.29000092   2.44000006  53.37999725
C    19.00000000   2.04999995  53.11000061
C    18.67000008   1.49000001  51.83000183
C    19.63999939   1.26999998  50.86999893
C    20.93000031   1.79000008  51.14999771
C    22.00000000   1.50000000  50.26000214
C    23.31999969   1.75999999  50.56000137
C    23.64999962   2.37000012  51.79999924
C    22.67000008   2.64999986  52.72999573
C    21.31999969   2.36000013  52.41000366
C    17.25000000   1.24000001  51.66999817
C    16.48999977   1.87000012  52.68000031
C    15.11999989   2.06999993  52.64999771
C    25.10000038   2.61999989  52.14000320
H    25.48538971   1.88490391  52.84654999
H    20.59999847   2.84000015  54.34999847
H    19.42000008   0.50999999  50.13000107
H    21.77000046   0.99000001  49.33000183
H    24.06999969   1.36000013  49.88999939
H    22.89999962   3.00999999  53.73000336
H    14.60000038   2.47000003  53.50999832
H    25.72000122   2.63000011  51.23000336
H    25.13000107   3.63000011  52.56000137
S    14.17000008   0.38000000  49.16999817
C    11.42000008   0.50000000  49.79999924
C    12.71999931   0.86000001  50.08999634
C    13.03999996   1.54999995  51.30000305
C    12.03999996   1.76999998  52.22000122
C    10.69000053   1.42000008  51.93999863
C     9.61999989   1.63000000  52.85999680
C     8.30000019   1.38999999  52.56000137
C     8.03999996   0.63000000  51.38999939
C     9.02999973   0.32999998  50.47999954
C    10.36000061   0.78000003  50.70000076
C    14.48999977   1.64000010  51.46999741
C    15.24000072   1.04999995  50.41999817
C    16.60000038   0.79999995  50.51000214
C     6.65999985   0.05000000  51.18999863
H     6.14654350   0.52779961  50.35562897
H    11.26999950  -0.20999999  48.99000168
H    12.28999996   2.14000010  53.20999908
H     9.90999985   2.17999983  53.75000000
H     7.57999992   1.54999995  53.36000061
H     8.82000065  -0.35999998  49.65999985
H    17.01000023   0.43000001  49.56999969
H     6.19000006   0.11000000  52.18000031
H     6.69000053  -1.03999996  51.09000397
