96

S    17.43000031   2.07999992  59.85000229
C    20.13999939   2.24000001  59.16999817
C    18.86000061   1.86000001  58.81999969
C    18.59000015   1.43999994  57.48000336
C    19.64999962   1.25999999  56.60999680
C    20.95999908   1.71000004  56.88999939
C    22.10000038   1.57000005  56.04999924
C    23.34000015   2.02999997  56.40999603
C    23.48999977   2.70000005  57.65999603
C    22.44999886   2.79000020  58.55999756
C    21.18000031   2.25000000  58.20999908
C    17.15999985   1.29999995  57.28000259
C    16.43000031   1.71000004  58.43000031
C    15.05000019   1.51999998  58.54999924
C    24.87999916   3.07000017  58.11000061
H    25.39197922   2.23803282  58.59353638
H    20.29999924   2.56999993  60.20000076
H    19.48999977   0.82000005  55.61999893
H    21.94999886   1.10000002  55.07999802
H    24.20999908   1.87999988  55.79000092
H    22.63000107   3.21000004  59.54000092
H    14.60000038   1.50999999  59.54000092
H    25.51000214   3.42999983  57.28000259
H    24.80999947   3.88999987  58.81999969
S    13.92000008   0.41999999  54.86000061
C    11.21000099   0.16000001  55.70000076
C    12.53000069   0.48000002  55.94999695
C    12.98999977   0.74000001  57.28000259
C    12.03999996   0.93999994  58.27000046
C    10.67000008   0.64000005  58.02000046
C     9.72999954   0.85000002  59.06000137
C     8.40999985   0.48999998  58.89999771
C     7.95000029   0.02000000  57.64999771
C     8.82999992  -0.03000000  56.59000015
C    10.22999954   0.23000000  56.72000122
C    14.40999985   1.02999997  57.41000366
C    15.06000042   0.75999999  56.18000031
C    16.43000031   1.00000000  56.12999725
C     6.51999998  -0.39999998  57.43000031
H     6.11957169   0.06478301  56.52903748
H    10.85999966  -0.46000001  54.87999725
H    12.28999996   1.30999994  59.26000214
H    10.15999985   1.14999998  60.00999832
H     7.73000002   0.38000000  59.75000000
H     8.46000004  -0.24000001  55.59000015
H    16.94000053   0.90999997  55.17000198
H     5.96000004  -0.12000000  58.34000015
H     6.54999971  -1.49000001  57.28000259
S    18.25000000   2.79000020  53.67000198
C    20.97999954   2.94000006  52.93000031
C    19.67000008   2.63999987  52.63000107
C    19.29999924   2.11999989  51.35000229
C    20.31999969   1.94999993  50.43000031
C    21.68000031   2.21000004  50.68000031
C    22.76000023   2.06999993  49.75999832
C    24.05999947   2.16999984  50.20999908
C    24.40999985   2.73999977  51.45999908
C    23.36000061   3.10999990  52.25999832
C    22.00000000   2.77999997  51.95999908
C    17.86000061   1.92000008  51.23000336
C    17.13000107   2.26999998  52.39999771
C    15.75000000   2.25999999  52.54000092
C    25.79000092   3.28000021  51.75000000
H    26.28898239   2.56004095  52.39867401
H    21.22999954   3.21000004  53.95000076
H    20.05000114   1.38000000  49.54000092
H    22.40999985   1.74000001  48.79000092
H    24.92000198   1.90999997  49.59999847
H    23.47999954   3.76999998  53.11000061
H    15.25000000   2.56999993  53.44999695
H    26.28999901   3.56999993  50.81999969
H    25.72000122   4.19000006  52.36000061
S    14.70999908   1.22000003  48.81000137
C    11.97999954   1.05999994  49.43999863
C    13.27999973   1.26999998  49.85000229
C    13.61999989   1.75999999  51.16000366
C    12.61999989   1.94000006  52.09999847
C    11.28000069   1.72999990  51.70000076
C    10.26000023   1.98000002  52.65999603
C     8.94999981   1.75000000  52.34000397
C     8.59000015   1.28999996  51.04000092
C     9.55999947   1.18000007  50.06999969
C    10.93999958   1.24000001  50.38999939
C    15.05000019   1.95999992  51.37000275
C    15.75000000   1.58999991  50.19000244
C    17.13000107   1.43999994  50.13999939
C     7.17999983   0.86000001  50.70999908
H     6.68919611   1.42904782  49.92044449
H    11.72999954   0.81000000  48.41999817
H    12.72999954   2.33999991  53.11000061
H    10.59000015   2.26999998  53.66000366
H     8.18000031   1.74000001  53.09999847
H     9.26000023   0.79999995  49.09000015
H    17.61999893   1.08000004  49.22999954
H     6.61000013   0.99000001  51.63999939
H     7.30999994  -0.20999999  50.48999786
