96

S    17.72999954   2.23000002  59.65000153
C    20.45999908   2.21000004  58.99000168
C    19.14999962   1.98000002  58.61999893
C    18.78000069   1.61000001  57.29000092
C    19.81999969   1.21000004  56.46999741
C    21.18999863   1.38000000  56.77000046
C    22.25000000   1.29999995  55.80999756
C    23.54999924   1.52999997  56.18999863
C    23.81999969   1.97000003  57.50999832
C    22.81999969   2.23000002  58.41999817
C    21.48999977   1.85000002  58.09000015
C    17.34000015   1.47000003  57.11999893
C    16.64999962   1.88999999  58.27999878
C    15.26000023   1.86000001  58.36999893
C    25.20999908   2.48000002  57.84000015
H    25.65781021   1.87581110  58.62900162
H    20.71000099   2.79999995  59.86999893
H    19.62000084   0.76999998  55.48999786
H    21.93000031   1.28999996  54.77000427
H    24.37000084   1.51999998  55.47000122
H    22.98999977   2.93000007  59.23999786
H    14.77000046   1.98000002  59.33000183
H    25.82999992   2.27999997  56.95999908
H    25.22999954   3.51000023  58.18999863
S    14.18000031   0.57999998  54.73999786
C    11.50000000   0.34999999  55.54999924
C    12.77999973   0.79000002  55.79999924
C    13.14000034   1.19999993  57.11999893
C    12.23000050   1.11000001  58.15999985
C    10.86999989   0.78000003  57.91999817
C     9.88000011   0.71999997  58.93000031
C     8.55000019   0.64000005  58.59000397
C     8.19000053   0.19999999  57.29000092
C     9.17000008   0.03000000  56.32999802
C    10.52000046   0.39000002  56.58000183
C    14.57999992   1.36999989  57.25000000
C    15.26999950   1.04999995  56.05999756
C    16.64999962   0.99000001  56.00000000
C     6.76000023  -0.09999999  56.88999939
H     6.33428144   0.60953069  56.18046951
H    11.21999931  -0.19999999  54.65999985
H    12.38999939   1.43000007  59.19000244
H    10.14000034   0.93999994  59.97000122
H     7.67000008   0.82000005  59.20000076
H     8.88000011  -0.23000000  55.31999969
H    17.20999908   0.48999998  55.20999908
H     6.19000006  -0.03000000  57.83000183
H     6.71000004  -1.11000001  56.46999741
S    18.07999992   2.63999987  53.73000336
C    20.69999886   2.94999981  52.97999954
C    19.43000031   2.61000013  52.56999969
C    19.05999947   2.09000015  51.30000305
C    20.05000114   1.90999997  50.34999847
C    21.35999870   2.32999992  50.68999863
C    22.40999985   2.06999993  49.77000427
C    23.71999931   2.36000013  50.10000229
C    24.05999947   2.98000002  51.32999802
C    23.05000114   3.25000000  52.22999954
C    21.70999908   2.84999990  51.97999954
C    17.61999893   1.89999998  51.19999695
C    16.97000122   2.24000001  52.41000366
C    15.57999992   2.24000001  52.42000198
C    25.48000145   3.31999993  51.70000076
H    25.82917404   2.86393499  52.62638092
H    21.04000092   3.33999991  53.93000031
H    19.85000038   1.30999994  49.45999908
H    22.15999985   1.72999990  48.76999664
H    24.48999786   2.31999993  49.34000015
H    23.36000061   3.68999982  53.16999817
H    15.06000042   2.49000001  53.34999847
H    26.14999962   3.01999998  50.86999893
H    25.58000183   4.41000032  51.81000137
S    14.37999916   1.00000000  48.81000137
C    11.67000008   0.97000003  49.55999756
C    12.97999954   1.25999999  49.86999893
C    13.35999966   1.75999999  51.14999771
C    12.35000038   1.94000006  52.06999969
C    11.02000046   1.49000001  51.84999847
C     9.98000050   1.63000000  52.81000137
C     8.69000053   1.21000004  52.56999969
C     8.30999947   0.79999995  51.25999832
C     9.28999996   0.68000007  50.30000305
C    10.65000057   1.00000000  50.54999924
C    14.80000019   1.88999999  51.31000137
C    15.47000027   1.51999998  50.11000061
C    16.86000061   1.52999997  50.07999802
C     6.94000006   0.37000000  50.80999756
H     6.49911880   1.10954261  50.14156723
H    11.28999901   0.76999998  48.55999756
H    12.63000011   2.27999997  53.06000137
H    10.21999931   1.94999993  53.81999969
H     7.96999979   1.25000000  53.37999725
H     9.02000046   0.56999999  49.25000000
H    17.21999931   1.14999998  49.13000107
H     6.38000011   0.39999998  51.76000214
H     7.11000013  -0.64999998  50.44000244
