96

S    16.73999977   1.88999999  59.94999695
C    19.45000076   2.15000010  59.29999924
C    18.17000008   1.84000003  58.89999771
C    17.86000061   1.35000002  57.58999634
C    18.88000107   1.28000009  56.65999985
C    20.22000122   1.58999991  56.98999786
C    21.19999886   1.63000000  55.96000290
C    22.49000168   1.90999997  56.35000229
C    22.79999924   2.21000004  57.70999908
C    21.84000015   2.31999993  58.68000031
C    20.48999977   1.99000001  58.34999847
C    16.42000008   1.21000004  57.45999908
C    15.64000034   1.50000000  58.61000061
C    14.26000023   1.34000003  58.60000229
C    24.25000000   2.48000002  58.02999878
H    24.72719955   1.65380645  58.55705261
H    19.71999931   2.63000011  60.24000168
H    18.79999924   1.01999998  55.61000061
H    21.00000000   1.35000002  54.93000031
H    23.25000000   2.01999998  55.58000183
H    22.09000015   2.66000009  59.68000031
H    13.73000050   1.36000013  59.54999924
H    24.96999931   2.86000013  57.29000092
H    24.18999863   3.32999992  58.73000336
S    13.38000107   0.16000001  54.92000198
C    10.62999916   0.01000000  55.59999847
C    11.92999935   0.32999998  55.93000031
C    12.18000031   0.94999999  57.18999863
C    11.19999981   0.99000001  58.15999985
C     9.92999935   0.43000001  57.90999985
C     8.94999981   0.39999998  58.95000076
C     7.65999985  -0.01000000  58.69999695
C     7.32999992  -0.41000003  57.37999725
C     8.26000023  -0.41999999  56.36000061
C     9.59999943   0.03000000  56.56999969
C    13.61999989   1.08000004  57.37999725
C    14.40999985   0.75000000  56.25000000
C    15.80000019   0.82000005  56.26999664
C     5.98999977  -1.08000004  57.18000031
H     5.46235943  -0.63079262  56.33862686
H    10.26000023  -0.38000000  54.65000153
H    11.44999981   1.42000008  59.13000107
H     9.21000004   0.82999998  59.91000366
H     6.90000010   0.11000000  59.45999908
H     8.01000023  -0.78000003  55.37000275
H    16.38000107   0.59000003  55.38000107
H     5.32000017  -0.79999995  58.01000214
H     6.07999992  -2.16000009  57.04999924
S    13.86999989  -2.11999989  52.09999847
C    11.23000050  -2.47000003  52.76000214
C    12.53999901  -2.69000006  53.11999893
C    12.94000053  -3.28000021  54.36999893
C    11.97000027  -3.84000015  55.18000031
C    10.60999966  -3.63000011  54.85000229
C     9.64999962  -4.21999979  55.72000122
C     8.32999992  -4.19000006  55.34999847
C     7.90000010  -3.60000014  54.13000107
C     8.82999992  -2.94000006  53.36000061
C    10.22999954  -2.99000001  53.61999893
C    14.35999966  -2.99000001  54.55999756
C    15.00000000  -2.38999987  53.44999695
C    16.31000137  -1.92000008  53.44999695
C     6.44000006  -3.72000003  53.76999664
H     6.14086723  -3.27130055  52.82274246
H    10.95999908  -2.01999998  51.81000137
H    12.25999928  -4.44999981  56.03000259
H    10.01999950  -4.81999969  56.55000305
H     7.65999985  -4.55000019  56.12999725
H     8.48999977  -2.46000004  52.44999695
H    16.79000092  -1.39999998  52.63000107
H     6.19999981  -4.78999996  53.76999664
H     5.79999971  -3.28999996  54.55999756
S    17.69000053  -3.17999983  56.95000076
C    20.29999924  -2.50000000  56.25000000
C    18.96999931  -2.52999997  55.91999817
C    18.53999901  -1.87999988  54.71000290
C    19.37000084  -1.26999998  53.79000092
C    20.73999786  -1.36000013  54.09999847
C    21.70999908  -0.79000002  53.22999954
C    23.05999947  -0.94999999  53.48999786
C    23.55999947  -1.43999994  54.72000122
C    22.60999870  -1.86000001  55.61999893
C    21.21999931  -1.94000006  55.33000183
C    17.11000061  -2.16000009  54.56999969
C    16.53000069  -2.87999988  55.63999939
C    15.19000053  -3.26999998  55.63999939
C    25.06000137  -1.47000003  54.94999695
H    25.33774376  -1.86880887  55.92565536
H    20.62999916  -2.82999992  57.23999786
H    19.05999947  -0.87000000  52.83000183
H    21.50000000  -0.31000000  52.28000259
H    23.84000015  -0.59999996  52.81999969
H    22.88999939  -2.33999991  56.55000305
H    14.81999969  -3.91000009  56.44000244
H    25.59000015  -0.50999999  55.06999969
H    25.53999901  -2.04999995  54.15999985
