96

S    17.43999863   1.64000010  59.79000092
C    20.13999939   1.90999997  59.06000137
C    18.85000038   1.57000005  58.72000122
C    18.46999931   1.26999998  57.36999893
C    19.42000008   1.19000006  56.38000107
C    20.79000092   1.43000007  56.66999817
C    21.86000061   1.15999997  55.77000046
C    23.19999886   1.31999993  56.04000092
C    23.47999954   1.70000005  57.37999725
C    22.49000168   1.99000001  58.29000092
C    21.09999847   1.84000003  58.01000214
C    17.02999878   1.35000002  57.18999863
C    16.32999992   1.41000009  58.43000031
C    14.93999958   1.49000001  58.46000290
C    24.87999916   2.03999996  57.83000183
H    25.22895813   1.29223096  58.54216003
H    20.39999962   2.25000000  60.06000137
H    19.14999962   0.87000000  55.38000107
H    21.56999969   0.68000007  54.85000229
H    24.00000000   1.18000007  55.33000183
H    22.79999924   2.16000009  59.31999969
H    14.46000004   1.58999991  59.43000031
H    25.52000046   2.16000009  56.93999863
H    24.80999947   3.02999997  58.30999756
S    13.82999992   0.82000005  54.71000290
C    11.13000011   0.64999998  55.40999985
C    12.42000008   0.93000001  55.79000092
C    12.79000092   1.25999999  57.12999725
C    11.79999924   1.24000001  58.09999847
C    10.46000004   0.88000000  57.80000305
C     9.46000004   0.78000003  58.80000305
C     8.14000034   0.57999998  58.47999954
C     7.81000042   0.28000000  57.12999725
C     8.76999950   0.32000002  56.14999771
C    10.14000034   0.62000000  56.42000198
C    14.23999977   1.36000013  57.25999832
C    14.93999958   1.16999996  56.04000092
C    16.32999992   1.21000004  55.97999954
C     6.37000036  -0.06000000  56.83000183
H     6.03749228   0.50597030  55.95981979
H    10.90000057   0.19999999  54.43999863
H    12.07999992   1.28999996  59.13999939
H     9.72999954   1.14999998  59.79000092
H     7.37999964   0.64000005  59.25000000
H     8.47999954  -0.03000000  55.15999603
H    16.84999847   1.01999998  55.05000305
H     5.73000002   0.09999999  57.70999908
H     6.21999979  -1.10000002  56.52999878
S    14.63000107  -1.71000004  51.83000183
C    11.95000076  -2.24000001  52.51999664
C    13.28999996  -2.29999995  52.83000183
C    13.71999931  -2.64999986  54.15000153
C    12.88000011  -3.21000004  55.08999634
C    11.51000023  -3.23000002  54.75000000
C    10.50000000  -3.82999992  55.56999969
C     9.15999985  -3.61000013  55.35999680
C     8.69000053  -2.92000008  54.22000122
C     9.63999939  -2.51999998  53.30999756
C    11.03999996  -2.66999984  53.50999832
C    15.14000034  -2.36000013  54.33000183
C    15.77999973  -1.84000003  53.18000031
C    17.11000061  -1.44999993  53.15999985
C     7.21000004  -2.68000007  54.01000214
H     6.69179249  -3.09172678  53.14395142
H    11.54000092  -1.76999998  51.63000107
H    13.25000000  -3.47000003  56.07999802
H    10.88000107  -4.46000004  56.36000061
H     8.45000076  -4.01999998  56.06999969
H     9.30999947  -2.02999997  52.39999771
H    17.65999985  -1.26999998  52.23999786
H     6.76999998  -2.99000001  54.97000122
H     7.05999947  -1.59999990  54.06000137
S    18.35000038  -2.63000011  56.75000000
C    21.05999947  -2.28999996  56.03000259
C    19.71999931  -2.13000011  55.75000000
C    19.31999969  -1.62000000  54.47999954
C    20.25000000  -1.29999995  53.50000000
C    21.61999893  -1.58999991  53.68000031
C    22.63999939  -1.33000004  52.72999573
C    23.95000076  -1.35000002  53.13999939
C    24.30999947  -1.72000003  54.47000122
C    23.36000061  -2.13000011  55.38000107
C    22.00000000  -2.01999998  55.00000000
C    17.86999893  -1.64000010  54.31999969
C    17.22999954  -2.25000000  55.41999817
C    15.92000008  -2.71000004  55.44000244
C    25.73999786  -1.51999998  54.89999771
H    25.98242760  -2.07616019  55.80554199
H    21.48999977  -2.87999988  56.84000015
H    19.86999893  -0.96000004  52.54000092
H    22.36999893  -0.90000004  51.76000214
H    24.80999947  -1.08999991  52.52999878
H    23.62999916  -2.32999992  56.42000198
H    15.62000084  -3.28000021  56.31000137
H    25.94000053  -0.46000001  55.13999939
H    26.35999870  -1.88999999  54.08000183
