96

S    17.52000046   1.48000002  60.06999969
C    20.26000023   1.72999990  59.31999969
C    18.94000053   1.52999997  59.01000214
C    18.53999901   1.12000000  57.69000244
C    19.48999977   1.08000004  56.68000031
C    20.81000137   1.47000003  56.98999786
C    21.83000183   1.50000000  55.98999786
C    23.13999939   1.82999992  56.25999832
C    23.55999947   2.11999989  57.57999802
C    22.63999939   2.01999998  58.60000229
C    21.28000069   1.65999997  58.34000015
C    17.10000038   1.00000000  57.54000092
C    16.38000107   1.14999998  58.75000000
C    14.98999977   1.13000000  58.79000092
C    25.00999832   2.38000011  57.93000031
H    25.38705826   1.69702601  58.69123077
H    20.55999947   2.07999992  60.30000305
H    19.14999962   0.76999998  55.70000076
H    21.64999962   1.02999997  55.02999878
H    23.90999985   1.63000000  55.52999878
H    22.85000038   2.26999998  59.62999725
H    14.44000053   1.36999989  59.69999695
H    25.69000053   2.34999990  57.08000183
H    25.05000114   3.40000010  58.34000015
S    13.89000034   0.69999999  55.01999664
C    11.13999939   0.54000002  55.61000061
C    12.43999958   0.69999999  56.04000092
C    12.82999992   0.90999997  57.39999771
C    11.77999973   1.07000005  58.29000092
C    10.44999981   0.75999999  57.90999985
C     9.46000004   0.64999998  58.93000031
C     8.22000027   0.14999999  58.60000229
C     7.79999971   0.01000000  57.25000000
C     8.76999950  -0.01000000  56.26999664
C    10.10000038   0.41999999  56.56000137
C    14.27000046   0.88000000  57.62000275
C    14.98999977   0.67000002  56.42000198
C    16.38000107   0.69000000  56.38000107
C     6.44000006  -0.56999999  56.93999863
H     6.02882099  -0.07374910  56.06092834
H    10.93999958   0.19999999  54.59999847
H    11.97000027   1.34000003  59.31999969
H     9.70000076   0.85000002  59.97000122
H     7.69000006  -0.28999999  59.43000031
H     8.59000015  -0.38000000  55.27000046
H    16.88999939   0.59000003  55.43000031
H     5.80999947  -0.34999999  57.81000137
H     6.48000002  -1.65999997  56.77999878
S    14.11999893  -1.36999989  52.00000000
C    11.44000053  -2.09999990  52.69000244
C    12.77999973  -2.00000000  52.97000122
C    13.22999954  -2.70000005  54.13999939
C    12.31999969  -3.22000003  55.05000305
C    10.93000031  -3.14000010  54.81999969
C    10.01000023  -3.81000018  55.68000031
C     8.71999931  -3.97000027  55.22999573
C     8.23000050  -3.40000010  54.02999878
C     9.09000015  -2.64999986  53.25000000
C    10.44999981  -2.50000000  53.62999725
C    14.67000008  -2.66000009  54.27999878
C    15.26000023  -1.87000012  53.26000214
C    16.59000015  -1.47000003  53.15999985
C     6.84000015  -3.81999993  53.57999802
H     6.46245766  -3.29286551  52.70381927
H    11.00999928  -1.80000007  51.73999786
H    12.68000031  -3.74000025  55.93000031
H    10.39999962  -4.41000032  56.50000000
H     8.05999947  -4.63000011  55.79000092
H     8.78999996  -2.27999997  52.28000259
H    17.04000092  -1.14999998  52.22000122
H     6.94000006  -4.90000010  53.40000153
H     6.30999994  -3.67000008  54.52999878
S    17.94000053  -2.91000009  56.66999817
C    20.59999847  -2.33999991  56.10000229
C    19.27999878  -2.23000002  55.72999954
C    18.85000038  -1.74000001  54.45999908
C    19.82999992  -1.38000000  53.54999924
C    21.19999886  -1.38000000  53.89999771
C    22.15999985  -0.86000001  52.98999786
C    23.47999954  -0.73000002  53.36000061
C    23.88999939  -1.38999999  54.54999924
C    23.00000000  -1.98000002  55.41999817
C    21.60000038  -1.89999998  55.18000031
C    17.42000008  -1.86000001  54.22000122
C    16.82999992  -2.45000005  55.35999680
C    15.52000046  -2.94000006  55.35999680
C    25.36999893  -1.65999997  54.69999695
H    25.68955040  -1.34754968  55.69416046
H    20.97999954  -2.79000020  57.01000214
H    19.45000076  -1.08999991  52.56999969
H    21.81999969  -0.57999998  52.00000000
H    24.09000015  -0.50999999  52.49000168
H    23.40999985  -2.53999996  56.25000000
H    15.14999962  -3.47000003  56.23000336
H    25.98999977  -1.12000000  53.97999573
H    25.52999878  -2.73000002  54.54000092
