96

S    16.80999947   1.94000006  60.04000092
C    19.48999977   2.03999996  59.47000122
C    18.25000000   1.63000000  59.05000305
C    17.97999954   1.05999994  57.76000214
C    19.07999992   0.99000001  56.91999817
C    20.34000015   1.52999997  57.25999832
C    21.40000153   1.46000004  56.31000137
C    22.67000008   1.85000002  56.65999985
C    22.85000038   2.37000012  57.97000122
C    21.87999916   2.54999995  58.92000198
C    20.59999847   2.02999997  58.59000397
C    16.54000092   1.02999997  57.55000305
C    15.77999973   1.41000009  58.68999863
C    14.44000053   1.75000000  58.61000061
C    24.25000000   2.79999995  58.36000061
H    24.70462036   2.02572632  58.97799683
H    19.67000008   2.28999996  60.51000214
H    19.01000023   0.52999997  55.93999863
H    21.34000015   0.96000004  55.34999847
H    23.52999878   1.62000000  56.04000092
H    22.04000092   2.89000010  59.93999863
H    13.92000008   1.93000007  59.54999924
H    24.86000061   3.01999998  57.48000336
H    24.23000145   3.76999998  58.88000107
S    13.50999928   0.50999999  54.92000198
C    10.77999973   0.39999998  55.56000137
C    12.07999992   0.63000000  55.96000290
C    12.32999992   1.18000007  57.25999832
C    11.31000042   1.29999995  58.18999863
C     9.96999931   1.00999999  57.84000015
C     8.85999966   1.13000000  58.72000122
C     7.53999996   0.88999999  58.39000320
C     7.31999969   0.48000002  57.04999924
C     8.38000011   0.25000000  56.20999908
C     9.72999954   0.59999996  56.49000168
C    13.76000023   1.38999999  57.43999863
C    14.50000000   1.07000005  56.27999878
C    15.88000107   0.92000002  56.31999969
C     5.96000004   0.09000000  56.51000214
H     5.66771507   0.68882829  55.64740372
H    10.65000057   0.01000000  54.54999924
H    11.42000008   1.56000006  59.23999786
H     9.06000042   1.47000003  59.72999954
H     6.76000023   0.97000003  59.13999939
H     8.11999989   0.04000000  55.17000198
H    16.40999985   0.69000000  55.40000153
H     5.26000023   0.39000002  57.30999756
H     5.78999996  -0.97999996  56.35000229
S    14.45000076  -1.31999993  52.34000397
C    11.78999996  -2.02999997  52.95000076
C    13.12999916  -2.03999996  53.27999878
C    13.60000038  -2.59000015  54.51000214
C    12.72999954  -3.31999993  55.28999710
C    11.33999920  -3.30000019  54.99000168
C    10.40999985  -3.86000013  55.90999985
C     9.06999969  -3.98999977  55.63999939
C     8.57999992  -3.42999983  54.43000031
C     9.46000004  -2.82000017  53.55999756
C    10.85999966  -2.73999977  53.75000000
C    15.03999901  -2.37000012  54.65999985
C    15.65999985  -1.71000004  53.56999969
C    17.01000023  -1.38999999  53.54000092
C     7.09000015  -3.45000005  54.20000076
H     6.71954298  -2.92993522  53.31660080
H    11.43000031  -1.62000000  52.01000214
H    13.07999992  -3.89999986  56.13999939
H    10.69000053  -4.18000031  56.90999985
H     8.43999958  -4.63999987  56.24000168
H     9.11999989  -2.37000012  52.63000107
H    17.56000137  -1.04999995  52.65999603
H     6.91999960  -4.53000021  54.23999786
H     6.57000017  -3.25999999  55.14999771
S    18.45999908  -3.23000002  56.72999954
C    21.09999847  -2.79000020  56.00999832
C    19.77000046  -2.61000013  55.72000122
C    19.29999924  -1.90999997  54.55999756
C    20.23999977  -1.42000008  53.67000198
C    21.61999893  -1.69000006  53.82999802
C    22.60000038  -1.14999998  52.95999908
C    23.92999840  -1.05999994  53.27999878
C    24.34000015  -1.58999991  54.52999878
C    23.40999985  -2.07999992  55.41999817
C    22.03000069  -2.20000005  55.11000061
C    17.84000015  -1.81999993  54.58000183
C    17.23999977  -2.56000018  55.61999893
C    15.86999989  -2.79999995  55.70000076
C    25.78000069  -1.41000009  54.95999908
H    26.02834511  -1.74349260  55.96757507
H    21.37000084  -3.10999990  57.02000046
H    19.81999969  -0.71000004  52.95999908
H    22.27999878  -0.56999999  52.09000015
H    24.64999962  -0.64999998  52.56999969
H    23.69999886  -2.27999997  56.45000076
H    15.36000061  -3.30999994  56.52000046
H    25.95000076  -0.32000002  54.91000366
H    26.42999840  -1.81999993  54.18000031
