96

S    17.50000000   2.14000010  60.12000275
C    20.22000122   2.26999998  59.59000015
C    18.96000099   1.95999992  59.13000107
C    18.61999893   1.47000003  57.83000183
C    19.62000084   1.34000003  56.88000107
C    20.94000053   1.62000000  57.30999756
C    22.03000069   1.69000006  56.39999771
C    23.31999969   2.00000000  56.77999878
C    23.62999916   2.30999994  58.13000107
C    22.56999969   2.50000000  59.00000000
C    21.25999832   2.09999990  58.62999725
C    17.19000053   1.36999989  57.61000061
C    16.44000053   1.71000004  58.75999832
C    15.06999969   1.93000007  58.73000336
C    25.03000069   2.68000007  58.54999924
H    25.39208221   2.01973176  59.33806229
H    20.50000000   2.75999999  60.51000214
H    19.40000153   1.08000004  55.84999847
H    21.86000061   1.48000002  55.34999847
H    24.13000107   2.05999994  56.06999969
H    22.78000069   3.03999996  59.92000198
H    14.46000004   2.16000009  59.59999847
H    25.86999893   2.61000013  57.84999847
H    25.06000137   3.73000002  58.88000107
S    14.14000034   0.59999996  55.07999802
C    11.39000034   0.43000001  55.76000214
C    12.67000008   0.82999998  56.05999756
C    12.97999954   1.41000009  57.34000397
C    11.97999954   1.74000001  58.22999954
C    10.69000053   1.22000003  57.95999908
C     9.63999939   1.28000009  58.92000198
C     8.38999939   0.74000001  58.73000336
C     8.03999996   0.32000002  57.42000198
C     8.98999977   0.29999998  56.43000031
C    10.34999943   0.59999996  56.70999908
C    14.40999985   1.56000006  57.54000092
C    15.15999985   1.19999993  56.39999771
C    16.54000092   1.00000000  56.43000031
C     6.57000017   0.09000000  57.15999985
H     6.12848997   0.72378105  56.39091492
H    11.17000008  -0.02000000  54.79000092
H    12.18000031   2.13000011  59.22000122
H     9.82999992   1.77999997  59.86999893
H     7.64999962   0.75999999  59.52999878
H     8.69999981   0.04000000  55.40999985
H    17.02000046   0.50000000  55.59000015
H     5.96000004   0.14000000  58.08000183
H     6.48999977  -0.94999999  56.81000137
S    14.70000076  -1.69000006  52.35000229
C    12.03999996  -2.04999995  53.08000183
C    13.35999966  -2.32999992  53.31999969
C    13.78999901  -2.80999994  54.59999847
C    12.81999969  -3.32999992  55.43000031
C    11.44000053  -3.21000004  55.13999939
C    10.36999893  -3.81000018  55.86000061
C     9.02999973  -3.65999985  55.59999847
C     8.61999989  -2.82000017  54.52999878
C     9.61999989  -2.38000011  53.68999863
C    11.02000046  -2.49000001  53.95999908
C    15.21999931  -2.61999989  54.79000092
C    15.82999992  -2.00999999  53.67000198
C    17.14999962  -1.56000006  53.68999863
C     7.17999983  -2.48000002  54.22999954
H     6.87429905  -2.92788744  53.28446198
H    11.73999977  -1.51999998  52.18000031
H    13.10999966  -3.96000004  56.26999664
H    10.67999935  -4.50000000  56.65000153
H     8.34999943  -4.23999977  56.22000122
H     9.42000008  -1.90999997  52.72999573
H    17.56999969  -0.93000001  52.90000153
H     6.56000042  -2.66999984  55.11000061
H     7.09999990  -1.38999999  54.15000153
S    18.65999985  -3.02999997  57.05999756
C    21.21999931  -2.26999998  56.45000076
C    19.89999962  -2.22000003  56.07999802
C    19.40999985  -1.59999990  54.87999725
C    20.29999924  -0.92000002  54.06999969
C    21.68999863  -1.05999994  54.31000137
C    22.67999840  -0.59999996  53.40000153
C    24.01000023  -0.71000004  53.69999695
C    24.50000000  -1.36000013  54.86999893
C    23.54000092  -1.81999993  55.72999954
C    22.13000107  -1.71000004  55.52000046
C    17.97999954  -1.87999988  54.75999832
C    17.43000031  -2.56999993  55.86999893
C    16.06999969  -2.89000010  55.86999893
C    25.95000076  -1.72000003  55.05000305
H    26.31232834  -1.31504393  55.99489975
H    21.60000038  -2.79000020  57.31999969
H    20.06000137  -0.52999997  53.09000015
H    22.39000130  -0.04000000  52.50999832
H    24.77000046  -0.45000002  52.97000122
H    23.84000015  -2.39999986  56.59999847
H    15.67000008  -3.44000006  56.72000122
H    26.71999931  -1.56000006  54.27999878
H    26.01000023  -2.80999994  55.11000061
