96

S    16.59000015   8.80999947  59.22999954
C    19.22999954   8.42000008  58.60000229
C    17.93000031   8.34000015  58.16999817
C    17.52000046   7.88999987  56.86999893
C    18.50000000   7.64999962  55.91999817
C    19.80999947   8.05000019  56.24000168
C    20.85000038   8.11999989  55.26000214
C    22.14999962   8.47000027  55.51000214
C    22.52000046   8.76999950  56.84999847
C    21.59000015   8.64999962  57.85999680
C    20.22000122   8.36000061  57.57999802
C    16.06999969   7.73999977  56.81999969
C    15.44999981   8.30999947  57.95999908
C    14.07999992   8.52000046  58.01000214
C    23.90999985   9.30000019  57.09999847
H    24.42276573   8.61631298  57.77656555
H    19.56999969   8.89000034  59.52000046
H    18.22999954   7.23000002  54.94999695
H    20.55000114   7.76000023  54.27999878
H    22.86999893   8.50000000  54.68999863
H    21.86000061   8.93999958  58.87000275
H    13.59000015   8.89999962  58.89999771
H    24.38999939   9.59000015  56.16000366
H    23.85000038  10.29000092  57.58999634
S    12.79000092   7.23999977  54.47000122
C    10.17000008   7.05999947  55.22999573
C    11.44000053   7.42999983  55.59999847
C    11.82999992   7.97999954  56.86000061
C    10.85000038   7.96000004  57.83000183
C     9.52000046   7.59000015  57.55000305
C     8.48999977   7.63000011  58.53000259
C     7.21000004   7.23000002  58.22000122
C     6.84999990   6.74000025  56.93999863
C     7.82000017   6.76999998  55.96000290
C     9.15999985   7.16000032  56.22000122
C    13.27999973   8.11999989  56.93000031
C    13.94000053   7.67000008  55.75000000
C    15.29999924   7.42999983  55.70000076
C     5.46000004   6.21000004  56.70999908
H     4.90440750   6.94366646  56.12591934
H    10.03000069   6.83000040  54.16999817
H    11.10000038   8.30999947  58.83999634
H     8.82999992   7.77999973  59.54999924
H     6.46000004   7.13000011  59.00000000
H     7.57999992   6.44000006  54.94999695
H    15.69000053   7.04999971  54.75000000
H     4.90999985   5.98999977  57.63999939
H     5.56999969   5.26000023  56.18000031
S    13.45000076   5.42000008  51.38000107
C    10.77000046   4.75000000  51.90999985
C    12.09000015   4.71000004  52.27000427
C    12.53999901   3.95000005  53.40000153
C    11.64000034   3.31999993  54.23999786
C    10.26999950   3.51000023  53.92000198
C     9.23999977   3.03999996  54.78000259
C     7.90000010   3.30999994  54.65999985
C     7.44999981   4.05000019  53.54000092
C     8.38000011   4.40000010  52.57999802
C     9.77000046   4.19000006  52.75000000
C    13.99000072   3.97000027  53.53000259
C    14.63000107   4.69999981  52.50000000
C    15.98000050   5.03000021  52.62000275
C     5.97000027   4.23000002  53.30999756
H     5.66447449   3.95289564  52.30105591
H    10.44999981   5.23000002  50.98999786
H    12.01000023   2.53999996  54.89999771
H     9.56999969   2.73000002  55.77000046
H     7.13000011   2.87999988  55.30000305
H     8.02999973   4.94999981  51.70999908
H    16.31999969   5.68000031  51.83000183
H     5.36999989   3.63999987  54.01000214
H     5.60999966   5.26000023  53.44999695
S    17.22999954   3.38000011  55.97999954
C    19.93999863   4.05999994  55.44000244
C    18.60000038   4.13999987  55.13999939
C    18.15999985   4.80999994  53.95000076
C    19.07999992   5.47999954  53.18000031
C    20.45000076   5.44000053  53.53000259
C    21.47000122   5.88000011  52.63000107
C    22.81999969   5.66999960  52.81000137
C    23.25000000   4.88999987  53.90999603
C    22.34000015   4.53999996  54.87999725
C    20.94000053   4.69999981  54.65999985
C    16.73999977   4.55999994  53.68999863
C    16.10000038   3.75999975  54.66999817
C    14.73999977   3.48000002  54.59999847
C    24.65999985   4.33999968  53.88999939
H    25.03057480   4.60367918  54.88057709
H    20.30999947   3.33999991  56.17000198
H    18.82999992   5.92000008  52.22000122
H    21.18999863   6.34999990  51.70000076
H    23.50000000   5.92999983  52.00000000
H    22.70999908   3.81999993  55.59999847
H    14.29999924   3.00000000  55.47999954
H    25.39999962   4.75000000  53.18000031
H    24.70999908   3.25000000  53.88000107
