96

S    17.02000046   8.82000065  59.22999954
C    19.72999954   8.78999996  58.53000259
C    18.44000053   8.43999958  58.22999954
C    18.09000015   7.86000013  56.97000122
C    19.09000015   7.76999998  56.02000427
C    20.45000076   8.10000038  56.25999832
C    21.53000069   7.95000029  55.34999847
C    22.84000015   8.19999981  55.70000076
C    23.13999939   8.60999966  57.02000046
C    22.11999893   8.88000011  57.90000153
C    20.76000023   8.57999992  57.57999802
C    16.64999962   7.73000002  56.79000092
C    15.95999908   8.17000008  57.95000076
C    14.57999992   8.14999962  58.06000137
C    24.54999924   9.04999924  57.36999893
H    24.96384048   8.60762024  58.27616501
H    19.96999931   9.03999996  59.55999756
H    18.86999893   7.40000010  55.02999878
H    21.37000084   7.60999966  54.33000183
H    23.54999924   8.00000000  54.89999771
H    22.29999924   9.57999992  58.70999908
H    14.11999893   8.55000019  58.95999908
H    25.20999908   8.80000019  56.52999878
H    24.57999992  10.14000034  57.45999908
S    13.40999985   7.04999971  54.45000076
C    10.73999977   6.67999983  55.18000031
C    12.02999973   6.97000027  55.56000137
C    12.38999939   7.48000050  56.84999847
C    11.36000061   7.73999977  57.72999573
C    10.01999950   7.42000008  57.41000366
C     8.97000027   7.65999985  58.34000015
C     7.69000006   7.23999977  58.06000137
C     7.40999985   6.60000038  56.83000183
C     8.36000061   6.46000004  55.84000015
C     9.70000076   6.84999990  56.11999893
C    13.81999969   7.72000027  56.97000122
C    14.53999996   7.37999964  55.79000092
C    15.92000008   7.36999989  55.65000153
C     5.98000002   6.28000021  56.45000076
H     5.61672878   6.99229622  55.70921326
H    10.47000027   6.53999996  54.13999939
H    11.51000023   8.18000031  58.70999908
H     9.15999985   8.14999962  59.29000092
H     6.93000031   7.46000004  58.81000137
H     8.21000004   6.01000023  54.86000061
H    16.42000008   7.02000046  54.75999832
H     5.33999968   6.34000015  57.34000397
H     5.96000004   5.26999998  56.03000259
S    17.43000031   9.30999947  53.43000031
C    20.17000008   9.53999996  52.68000031
C    18.86999893   9.19000053  52.38999939
C    18.46999931   8.59000015  51.16000366
C    19.40000153   8.38999939  50.14999771
C    20.73999786   8.78000069  50.37000275
C    21.64999962   8.86999989  49.27999878
C    22.96999931   9.11999989  49.58000183
C    23.42000008   9.40999985  50.90000153
C    22.50999832   9.44000053  51.93000031
C    21.12999916   9.22999954  51.68000031
C    17.02000046   8.56000042  51.00000000
C    16.27000046   8.96000004  52.14000320
C    14.88000011   8.88000011  52.19999695
C    24.87999916   9.63000011  51.22000122
H    25.41343689   8.96142483  51.89568710
H    20.43000031  10.15999985  53.53000259
H    19.10000038   8.07999992  49.15000153
H    21.24000168   8.43999958  48.36999893
H    23.69999886   9.02000046  48.79000092
H    22.90999985   9.70000076  52.90999985
H    14.30999947   9.15000057  53.08000183
H    25.36999893   9.63000011  50.24000168
H    25.03999901  10.57999992  51.75000000
S    13.94000053   7.95000029  48.41999817
C    11.21999931   7.73999977  48.95999908
C    12.46999931   8.09000015  49.40000153
C    12.76000023   8.36999989  50.77000046
C    11.72000027   8.55000019  51.65000153
C    10.40999985   8.18000031  51.25000000
C     9.32999992   8.23000050  52.16999817
C     8.05000019   7.95000029  51.75000000
C     7.78999996   7.50999975  50.43000031
C     8.82000065   7.42999983  49.52000046
C    10.14999962   7.78999996  49.88999939
C    14.19000053   8.55000019  51.03000259
C    14.93000031   8.34999943  49.84000397
C    16.31999969   8.23000050  49.84000397
C     6.38000011   7.16000032  49.99000168
H     5.98016596   7.66693258  49.11179352
H    10.98999977   7.51999950  47.91999817
H    11.92000008   8.76000023  52.70000076
H     9.47000027   8.76999950  53.11000061
H     7.25000000   8.27000046  52.41000366
H     8.69999981   7.07999992  48.50000000
H    16.93000031   7.97999954  48.97999573
H     5.69000006   7.53000021  50.76000214
H     6.28999996   6.06999969  50.04000092
