96

S    16.68000031   9.10000038  59.15000153
C    19.40000153   9.06000042  58.52000427
C    18.11000061   8.71999931  58.16999817
C    17.77000046   8.22000027  56.86999893
C    18.85000038   8.07999992  56.02000427
C    20.17000008   8.51000023  56.26999664
C    21.21999931   8.51000023  55.30000305
C    22.52000046   8.80999947  55.63999939
C    22.79000092   9.19000053  56.97999954
C    21.77000046   9.52000046  57.84000015
C    20.45000076   9.06999969  57.56000137
C    16.31999969   8.17000008  56.69000244
C    15.59999943   8.63000011  57.81999969
C    14.21000004   8.67000008  57.80000305
C    24.23000145   9.55000019  57.25999832
H    24.68648338   8.81534576  57.92332840
H    19.48999977   9.44000053  59.52999878
H    18.64999962   7.67000008  55.02999878
H    21.09999847   8.21000004  54.26000214
H    23.25000000   8.85000038  54.84000397
H    21.98999786  10.01999950  58.77999878
H    13.78000069   9.09000015  58.69999695
H    24.79000092   9.63000011  56.31999969
H    24.18000031  10.52999973  57.75000000
S    13.10999966   7.35000038  54.34000015
C    10.38000011   7.09000015  54.95999908
C    11.63000011   7.55000019  55.30000305
C    12.00000000   8.06999969  56.58000183
C    11.00000000   8.09000015  57.54000092
C     9.71000004   7.59000015  57.25999832
C     8.64000034   7.69999981  58.20000076
C     7.39000034   7.27999973  57.81999969
C     7.05999947   6.76999998  56.53999710
C     8.05000019   6.67999983  55.59999847
C     9.35000038   7.14999962  55.93999863
C    13.45000076   8.18000031  56.72999954
C    14.25000000   7.85000038  55.61000061
C    15.62999916   7.81000042  55.52999878
C     5.59000015   6.54999971  56.24000168
H     5.16284132   7.22633505  55.49959183
H    10.13000011   6.63999987  54.00000000
H    11.17000008   8.34000015  58.57999802
H     8.80999947   8.31999969  59.08000183
H     6.63999987   7.59999990  58.54000092
H     7.83999968   6.53999996  54.54000092
H    16.21999931   7.62000036  54.64000320
H     5.05999994   6.63000011  57.19999695
H     5.51999998   5.49000025  55.98999786
S    17.52000046   9.51000023  52.97000122
C    20.22000122   9.55000019  52.22999954
C    18.93000031   9.18000031  51.93999863
C    18.53999901   8.59000015  50.70000076
C    19.55999947   8.53999996  49.75999832
C    20.90999985   8.89000034  50.00999832
C    21.97999954   8.61999989  49.10999680
C    23.29999924   8.76000023  49.45000076
C    23.61999893   9.46000004  50.63999939
C    22.63000107   9.76000023  51.55000305
C    21.27000046   9.47000027  51.27999878
C    17.10000038   8.47999954  50.52999878
C    16.44000053   8.82999992  51.72999954
C    15.06000042   8.88000011  51.88999939
C    25.05000114   9.65999985  51.09000397
H    25.44618225   8.87471390  51.73379517
H    20.46999931  10.11999989  53.13000107
H    19.30999947   8.05000019  48.82999802
H    21.80000114   8.14999962  48.15000153
H    24.10000038   8.36000061  48.81999969
H    22.86000061  10.18000031  52.52999878
H    14.52000046   8.90999985  52.83000183
H    25.75000000   9.72000027  50.25000000
H    25.00000000  10.67999935  51.47999573
S    13.89000034   7.95000029  48.20999908
C    11.21999931   7.71000004  48.94000244
C    12.46999931   8.19000053  49.25000000
C    12.84999943   8.67000008  50.54000092
C    11.80999947   8.78000069  51.45999908
C    10.47000027   8.47999954  51.12999725
C     9.39999962   8.61999989  52.05999756
C     8.13000011   8.19999981  51.72000122
C     7.85000038   7.62000036  50.45999908
C     8.82999992   7.53000021  49.50000000
C    10.15999985   7.88999987  49.86000061
C    14.28999996   8.71999931  50.72999954
C    14.96999931   8.50000000  49.51000214
C    16.35000038   8.45000076  49.34000015
C     6.42000008   7.18999958  50.22999573
H     5.98633099   7.72319937  49.38398743
H    11.03000069   7.20000029  48.00000000
H    12.01000023   9.02999973  52.50000000
H     9.53999996   9.06000042  53.04000092
H     7.30999994   8.28999996  52.42000198
H     8.61999989   7.16000032  48.50000000
H    16.84000015   8.25000000  48.40000153
H     5.84000015   7.35000038  51.13999939
H     6.35999966   6.11000013  50.02999878
