96

S    17.02000046   8.26000023  59.38999939
C    19.75000000   7.86999989  58.75999832
C    18.42000008   7.82000017  58.40000153
C    17.92000008   7.53000021  57.09000015
C    18.94000053   7.25000000  56.19999695
C    20.32999992   7.40999985  56.44000244
C    21.35000038   7.30000019  55.45999908
C    22.67000008   7.53000021  55.76000214
C    23.11000061   7.86000013  57.06999969
C    22.11999893   8.10000038  57.98999786
C    20.76000023   7.75000000  57.77000046
C    16.46999931   7.46999979  56.95000076
C    15.81999969   7.88999987  58.13999939
C    14.45000076   8.13000011  58.16999817
C    24.51000023   8.34000015  57.35000229
H    25.02661324   7.80923367  58.14968872
H    20.09000015   8.22000027  59.73999786
H    18.60000038   7.17999983  55.17000198
H    20.96999931   7.16000032  54.43999863
H    23.42000008   7.48000050  54.98000336
H    22.37999916   8.71000004  58.85000229
H    14.01000023   8.47000027  59.09999847
H    25.17999840   8.36999989  56.47999573
H    24.37999916   9.35999966  57.74000168
S    13.23999977   6.67999983  54.66999817
C    10.62000084   6.61000013  55.27999878
C    11.85999966   6.93000031  55.76000214
C    12.18999958   7.57000017  57.01000214
C    11.10999966   7.60999966  57.88000107
C     9.77999973   7.26000023  57.54000092
C     8.64999962   7.46000004  58.37999725
C     7.36999989   7.09999990  58.02000046
C     7.17999983   6.51999998  56.73999786
C     8.23000050   6.34000015  55.86999893
C     9.55999947   6.72999954  56.22000122
C    13.63000011   7.63000011  57.15000153
C    14.30999947   7.09000015  56.03000259
C    15.69000053   6.96000004  55.90999985
C     5.79999971   6.02999973  56.35000229
H     5.26552677   6.64998865  55.63024521
H    10.42000008   6.32000017  54.25000000
H    11.26999950   8.02999973  58.87000275
H     8.80000019   7.96000004  59.33000183
H     6.53999996   7.28999996  58.68999863
H     8.14000034   5.88999987  54.88999939
H    16.11999893   6.51000023  55.01999664
H     5.23999977   6.02999973  57.29999924
H     5.92000008   5.00999975  55.96000290
S    14.02999973   5.07999992  51.84000015
C    11.32999992   4.48000002  52.51999664
C    12.68000031   4.30000019  52.69000244
C    13.15999985   3.45000005  53.74000168
C    12.22000027   2.92000008  54.59999847
C    10.81999969   2.94999981  54.40000153
C     9.81999969   2.38000011  55.24000168
C     8.48999977   2.53999996  54.97000122
C     8.02999973   3.15000010  53.76999664
C     9.00000000   3.74000025  52.98999786
C    10.39000034   3.75000000  53.29000092
C    14.59000015   3.58000016  53.97999573
C    15.19999981   4.38000011  52.97000122
C    16.54000092   4.69000006  53.13000107
C     6.57999992   3.52999973  53.59000397
H     6.13148355   3.07436395  52.70720673
H    11.03000069   4.99000025  51.60999680
H    12.61000061   2.42000008  55.48999786
H    10.31999969   1.82999992  56.04000092
H     7.78999996   2.25000000  55.75000000
H     8.78999996   4.32999992  52.09999847
H    16.98999977   5.23000002  52.29999924
H     6.00000000   3.17999983  54.45999908
H     6.50000000   4.61000013  53.43000031
S    17.80999947   2.64999986  56.29000092
C    20.50000000   3.07999992  55.72000122
C    19.19000053   3.28000021  55.35999680
C    18.73999977   4.19999981  54.36000061
C    19.67000008   4.84000015  53.55999756
C    21.02999878   4.55000019  53.81999969
C    22.00000000   5.09000015  52.93000031
C    23.31999969   4.86000013  53.22000122
C    23.78999901   4.11000013  54.33000183
C    22.86000061   3.52999973  55.14999771
C    21.47000122   3.71000004  54.89999771
C    17.28999901   4.13999987  54.18000031
C    16.64999962   3.30000019  55.13000107
C    15.27999973   3.07000017  55.07999802
C    25.26000023   3.81000018  54.52000046
H    25.62810707   4.24889565  55.44734573
H    20.88000107   2.56999993  56.59999847
H    19.43000031   5.38999987  52.64999771
H    21.52000046   5.56999969  52.08000183
H    24.00000000   5.38000011  52.55000305
H    23.12000084   2.84000015  55.94999695
H    14.75000000   2.57999992  55.90000153
H    25.79999924   4.17000008  53.63999939
H    25.29000092   2.71000004  54.50000000
