96

S    17.02999878   8.65999985  59.38999939
C    19.78000069   8.94999981  58.68999863
C    18.46999931   8.67999935  58.36999893
C    18.17000008   8.28999996  57.02000046
C    19.15999985   8.17000008  56.04999924
C    20.51000214   8.38999939  56.39999771
C    21.61999893   8.32999992  55.52000046
C    22.92000008   8.69999981  55.77999878
C    23.22000122   9.06999969  57.11999893
C    22.19000053   9.13999939  58.02000046
C    20.82999992   8.80000019  57.74000168
C    16.73999977   8.18000031  56.77999878
C    16.01000023   8.48999977  57.95000076
C    14.63000107   8.60999966  58.04000092
C    24.64999962   9.40999985  57.49000168
H    25.03375626   8.69934082  58.22198105
H    20.09000015   9.26999950  59.68000031
H    18.90999985   7.86999989  55.04000092
H    21.35999870   8.06999969  54.50000000
H    23.68000031   8.69999981  55.00999832
H    22.39999962   9.51000023  59.02000046
H    14.09000015   8.71999931  58.97999573
H    25.25000000   9.55999947  56.59000015
H    24.61999893  10.44000053  57.87000275
S    13.43999958   7.69999981  54.40000153
C    10.71000004   7.46000004  55.12000275
C    12.02000046   7.72000027  55.45999908
C    12.46000099   8.07999992  56.77999878
C    11.51000023   8.18000031  57.77999878
C    10.15999985   7.92000008  57.45999908
C     9.13000011   7.92999983  58.44999695
C     7.81000042   7.72000027  58.13000107
C     7.40999985   7.30999994  56.84000015
C     8.36999989   7.23000002  55.84999847
C     9.72000027   7.55000019  56.12999725
C    13.88000011   8.38000011  56.88000107
C    14.60000038   8.01999950  55.70999908
C    15.98000050   8.01000023  55.61000061
C     5.98000002   6.94000006  56.52999878
H     5.51716518   7.63781261  55.83218765
H    10.48999977   7.22000027  54.09000015
H    11.75000000   8.38000011  58.81999969
H     9.39999962   8.19999981  59.47000122
H     7.03999996   7.85000038  58.88000107
H     8.03999996   6.89000034  54.86000061
H    16.38000107   7.97999954  54.59999847
H     5.46999979   7.02000046  57.50000000
H     5.92000008   5.93999958  56.09000397
S    13.53999996   5.82999992  51.38999939
C    10.85000038   5.36999989  52.09999847
C    12.18999958   5.23999977  52.38999939
C    12.71999931   4.53000021  53.52000427
C    11.79999924   3.95000005  54.36999893
C    10.44000053   3.93000007  53.97999573
C     9.52000046   3.30000019  54.86999893
C     8.18000031   3.26999998  54.54999924
C     7.68000031   3.81999993  53.34000015
C     8.52999973   4.46999979  52.48000336
C     9.89999962   4.59000015  52.81999969
C    14.17000008   4.55999994  53.61000061
C    14.77000046   5.22000027  52.50999832
C    16.10000038   5.61999989  52.63000107
C     6.17000008   3.77999997  53.22999954
H     5.82770967   3.90835881  52.20312881
H    10.59999943   5.88999987  51.18000031
H    12.11999989   3.65000010  55.35999680
H     9.94999981   2.94999981  55.79999924
H     7.42999983   2.98000002  55.27999878
H     8.19000053   4.86000013  51.52000046
H    16.62999916   6.34000015  52.00000000
H     5.82999992   2.84999990  53.69999695
H     5.75000000   4.63999987  53.77999878
S    17.36999893   4.02999973  56.06999969
C    20.00999832   4.88999987  55.47000122
C    18.68999863   4.75000000  55.12000275
C    18.37000084   5.13999987  53.77999878
C    19.29999924   5.65999985  52.90999985
C    20.65999985   5.68000031  53.27999878
C    21.67000008   6.19000006  52.41000366
C    22.98999977   6.34000015  52.77000046
C    23.38999939   5.71000004  53.97999573
C    22.46000099   5.25000000  54.87999725
C    21.05999947   5.27999973  54.59999847
C    16.92000008   5.09999990  53.62999725
C    16.29999924   4.39000034  54.68999863
C    14.94999981   4.03999996  54.65000153
C    24.87999916   5.46000004  54.08000183
H    25.23574638   5.69479275  55.08320618
H    20.23999977   4.42999983  56.43000031
H    19.03000069   6.11999989  51.95999908
H    21.28999901   6.63999987  51.50000000
H    23.75000000   6.84999990  52.19999695
H    22.79999924   5.00000000  55.87999725
H    14.47999954   3.50000000  55.45999908
H    25.40999985   6.11000013  53.36999893
H    25.22999954   4.46000004  53.81000137
