96

S    16.90000153   8.36000061  59.27000046
C    19.63000107   8.28999996  58.73000336
C    18.34000015   8.13000011  58.27000046
C    17.98999977   7.78999996  56.91999817
C    19.03000069   7.63000011  56.03000259
C    20.36000061   7.95000029  56.39999771
C    21.40000153   8.06999969  55.43000031
C    22.67000008   8.42000008  55.81999969
C    22.96999931   8.76000023  57.15999985
C    21.97000122   8.78000069  58.09999847
C    20.65000153   8.36000061  57.75000000
C    16.54999924   7.86999989  56.72000122
C    15.80000019   8.18000031  57.88999939
C    14.42999935   8.38999939  58.00000000
C    24.38999939   9.13000011  57.55000305
H    24.83072090   8.51156712  58.33192825
H    19.71999931   8.65999985  59.73999786
H    18.79999924   7.40000010  54.99000168
H    21.09000015   7.85000038  54.40999985
H    23.57999992   8.30999947  55.24000168
H    22.13999939   9.02999973  59.15000153
H    13.94000053   8.64000034  58.94000244
H    25.02000046   9.22999954  56.65999985
H    24.40000153  10.15999985  57.94000244
S    13.30000019   7.21000004  54.34999847
C    10.65000057   6.85999966  55.17000198
C    11.92000008   7.30000019  55.45999908
C    12.28999996   7.85000038  56.72999954
C    11.23999977   8.01999950  57.62000275
C     9.89999962   7.62000036  57.37999725
C     8.80000019   7.88000011  58.25000000
C     7.53999996   7.40000010  57.98999786
C     7.30000019   6.63999987  56.81999969
C     8.28999996   6.52999973  55.86000061
C     9.59999943   7.03000021  56.11000061
C    13.71999931   8.10000038  56.83000183
C    14.40000057   7.71000004  55.65999985
C    15.78999996   7.62000036  55.58000183
C     5.92000008   6.15000010  56.44000244
H     5.34910202   6.81366920  55.79060364
H    10.52000046   6.38000011  54.20000076
H    11.39000034   8.46000004  58.60000229
H     8.96000004   8.27999973  59.25000000
H     6.83000040   7.46999979  58.81000137
H     8.01999950   6.12999964  54.88999939
H    16.25000000   7.30000019  54.65000153
H     5.23000002   6.05999994  57.28000259
H     5.97000027   5.13000011  56.04000092
S    13.83999920   5.03000021  51.56999969
C    11.18000031   4.46000004  52.04000092
C    12.48000050   4.35999966  52.49000168
C    12.94000053   3.76999998  53.70999908
C    12.00000000   3.25000000  54.58000183
C    10.65000057   3.26999998  54.15000153
C     9.64999962   2.75999999  55.01999664
C     8.31999969   2.86000013  54.68999863
C     7.88000011   3.55999994  53.53000259
C     8.82999992   4.05000019  52.65999603
C    10.21999931   3.94000006  52.95000076
C    14.37000084   3.89999986  53.94000244
C    14.96000099   4.61999989  52.88000107
C    16.28999901   5.01999950  52.91999817
C     6.42000008   3.70000005  53.20000076
H     6.17066383   3.12296581  52.30951691
H    10.92000008   5.05999994  51.18000031
H    12.28000069   2.89000010  55.56000137
H     9.98000050   2.26999998  55.93999863
H     7.59000015   2.61000013  55.45000076
H     8.65999985   4.53999996  51.70999908
H    16.69999886   5.71000004  52.18000031
H     5.72000027   3.53999996  54.02999878
H     6.39999962   4.78999996  53.04000092
S    17.69000053   3.42000008  56.27999878
C    20.34000015   3.97000027  55.63999939
C    19.01000023   4.17000008  55.35999680
C    18.56999969   4.81999969  54.16999817
C    19.47000122   5.46000004  53.34000015
C    20.86000061   5.26000023  53.54999924
C    21.94000053   5.82000017  52.81999969
C    23.26999855   5.59000015  53.06000137
C    23.61999893   4.77999973  54.18000031
C    22.63999939   4.32000017  55.01999664
C    21.27000046   4.51000023  54.71000290
C    17.13999939   4.61999989  53.95999908
C    16.54999924   3.84999990  54.99000168
C    15.21000004   3.47000003  54.98000336
C    25.09000015   4.61000013  54.48999786
H    25.33725739   5.07625866  55.44371033
H    20.65999985   3.25999999  56.39999771
H    19.09000015   6.15000010  52.58999634
H    21.70999908   6.56000042  52.04999924
H    24.11000061   5.97000027  52.49000168
H    22.98999977   3.72000003  55.86000061
H    14.98000050   2.79000020  55.79000092
H    25.76999855   5.00999975  53.73000336
H    25.19000053   3.51999998  54.54999924
