96

S    16.42000008   8.94999981  59.36000061
C    19.14999962   9.06000042  58.81000137
C    17.89999962   8.60999966  58.44999695
C    17.64999962   8.05000019  57.15999985
C    18.70000076   7.90000010  56.26999664
C    20.00000000   8.34000015  56.62000275
C    21.09000015   8.30000019  55.70999908
C    22.34999847   8.71999931  56.06999969
C    22.55000114   9.30000019  57.35000229
C    21.55999947   9.27999973  58.29999924
C    20.23999977   8.93000031  57.90999985
C    16.22999954   8.11999989  56.83000183
C    15.44999981   8.60999966  57.90999985
C    14.06000042   8.64000034  57.88000107
C    23.97000122   9.65999985  57.74000168
H    24.41215324   9.01103401  58.49594116
H    19.40999985   9.40999985  59.79999924
H    18.45999908   7.72000027  55.21999741
H    20.79000092   7.86000013  54.75999832
H    23.16999817   8.55000019  55.38999939
H    21.68999863   9.68000031  59.31000137
H    13.52000046   8.94999981  58.76999664
H    24.51999855   9.57999992  56.79000092
H    23.90000153  10.67999935  58.13999939
S    13.17999935   7.35000038  54.29000092
C    10.44000053   7.17000008  54.85000229
C    11.69999981   7.55999994  55.24000168
C    11.95000076   8.01000023  56.58000183
C    10.90000057   8.25000000  57.43999863
C     9.59999943   7.83999968  57.04000092
C     8.47999954   8.01000023  57.90000153
C     7.18999958   7.67000008  57.56999969
C     7.00000000   7.07000017  56.30000305
C     8.01000023   6.91999960  55.37000275
C     9.32999992   7.31999969  55.72000122
C    13.38999939   8.11999989  56.77000046
C    14.21000004   7.69000006  55.68999863
C    15.59999943   7.63999987  55.68000031
C     5.61999989   6.57999992  55.93999863
H     5.22844601   7.08546019  55.05722046
H    10.34000015   6.65999985  53.88999939
H    11.03999996   8.59000015  58.46000290
H     8.78999996   8.46000004  58.82999802
H     6.34999990   7.63000011  58.26000214
H     7.77999973   6.46000004  54.41999817
H    16.07999992   7.04999971  54.89999771
H     4.97000027   6.83000040  56.79000092
H     5.55000019   5.49000025  55.89000320
S    14.21000004   5.50000000  51.33999634
C    11.56999969   4.84000015  51.84000015
C    12.86999893   4.81999969  52.28000259
C    13.27000046   4.18000031  53.50000000
C    12.28999996   3.68999982  54.34000015
C    10.93000031   3.78999996  53.96999741
C     9.85999966   3.55999994  54.87999725
C     8.53999996   3.63000011  54.52000046
C     8.19000053   4.07999992  53.22000122
C     9.18000031   4.36999989  52.30999756
C    10.54999924   4.30999994  52.68000031
C    14.70000076   4.32999992  53.75000000
C    15.29999924   4.94999981  52.63000107
C    16.61999893   5.40000010  52.65999603
C     6.72999954   4.32000017  52.87000275
H     6.23691320   3.67684364  52.14109039
H    11.31000042   5.46999979  50.98999786
H    12.48999977   3.58999991  55.40000153
H    10.19000053   3.10999990  55.80999756
H     7.73999977   3.40999985  55.21999741
H     8.85000038   4.76999998  51.35000229
H    17.05000114   6.00000000  51.86000061
H     6.17000008   4.34999990  53.81999969
H     6.69000053   5.38000011  52.57999802
S    17.90999985   3.91000009  56.18000031
C    20.56999969   4.53999996  55.59999847
C    19.25000000   4.57999992  55.21999741
C    18.81999969   5.09000015  53.95000076
C    19.78999901   5.58000040  53.09999847
C    21.17000198   5.42000008  53.36000061
C    22.17000008   5.84000015  52.43999863
C    23.52000046   5.86999989  52.70000076
C    23.90000153   5.44000053  54.00000000
C    22.96999931   4.90999985  54.86999893
C    21.55999947   4.88999987  54.64000320
C    17.36999893   5.03000021  53.77999878
C    16.77999878   4.35999966  54.87999725
C    15.44000053   4.02999973  54.89999771
C    25.36999893   5.36000013  54.34999847
H    25.56990623   5.39569712  55.42091370
H    20.92000008   4.07000017  56.51000214
H    19.52999878   6.02999973  52.14000320
H    21.87999916   6.23000050  51.46999741
H    24.21999931   6.28000021  51.97999954
H    23.45000076   4.57999992  55.77999878
H    15.01000023   3.45000005  55.72000122
H    25.94000053   6.17000008  53.88999939
H    25.75000000   4.42000008  53.90999603
