96

S    17.12000084   8.30999947  59.61999893
C    19.81999969   8.64000034  58.95000076
C    18.55999947   8.22000027  58.59000397
C    18.23999977   7.83999968  57.25000000
C    19.29000092   7.64999962  56.37000275
C    20.58000183   8.14999962  56.66999817
C    21.56999969   8.18000031  55.63999939
C    22.80999947   8.64999962  56.00000000
C    23.09999847   9.13999939  57.29999924
C    22.13000107   9.22000027  58.27000046
C    20.85000038   8.67999935  57.97999954
C    16.79999924   7.75000000  57.05999756
C    16.04999924   8.00000000  58.23999786
C    14.65999985   8.13000011  58.27000046
C    24.53000069   9.48999977  57.65999603
H    25.03563309   8.74935532  58.27957916
H    20.00999832   9.10000038  59.92000198
H    19.19999886   7.09999990  55.44000244
H    21.37000084   7.73000002  54.66999817
H    23.62999916   8.55000019  55.30000305
H    22.40999985   9.40999985  59.31000137
H    14.15999985   8.50000000  59.15999985
H    25.15000153   9.64999962  56.77000046
H    24.51999855  10.44999981  58.18000031
S    13.61999989   6.83000040  54.66999817
C    10.85999966   6.83000040  55.22999573
C    12.13999939   7.14999962  55.59999847
C    12.48999977   7.76000023  56.84999847
C    11.49000072   8.01999950  57.76000214
C    10.14999962   7.71000004  57.41000366
C     9.09000015   8.01999950  58.30999756
C     7.78999996   7.64999962  58.04999924
C     7.49000025   6.93000031  56.86000061
C     8.46000004   6.71000004  55.91999817
C     9.81999969   7.05999947  56.17000198
C    13.92000008   7.82999992  57.11999893
C    14.65999985   7.42000008  55.98999786
C    16.03999901   7.50999975  55.90000153
C     6.05000019   6.51000023  56.65000153
H     5.59436417   7.02259064  55.80280304
H    10.57000065   6.51999998  54.22999954
H    11.75000000   8.47000027  58.70999908
H     9.39999962   8.56999969  59.19000244
H     7.05999947   7.96000004  58.79000092
H     8.27000046   6.30999994  54.93000031
H    16.47999954   7.23999977  54.94999695
H     5.46000004   6.53999996  57.56999969
H     6.17999983   5.50000000  56.24000168
S    13.55999947   5.00999975  51.56000137
C    10.85999966   4.65000010  52.29000092
C    12.18999958   4.39000034  52.50999832
C    12.68000031   3.78999996  53.70999908
C    11.71000004   3.45000005  54.64000320
C    10.32999992   3.45000005  54.34000015
C     9.36999989   3.00000000  55.30000305
C     8.02999973   3.07999992  55.00000000
C     7.59999990   3.68999982  53.79000092
C     8.47999954   4.28999996  52.91999817
C     9.86999989   4.11999989  53.15000153
C    14.13000011   3.74000025  53.85000229
C    14.73000050   4.30999994  52.70000076
C    16.06999969   4.67999983  52.71999741
C     6.14000034   4.00999975  53.54000092
H     5.75759840   3.51429391  52.64773178
H    10.55999947   5.23000002  51.42000198
H    11.92999935   3.28999996  55.70000076
H     9.77000046   2.50999975  56.18999863
H     7.28999996   2.73000002  55.70999908
H     8.13000011   4.92999983  52.11000061
H    16.43000031   5.23000002  51.86000061
H     5.50000000   3.72000003  54.38000107
H     6.03999996   5.09999990  53.40999985
S    17.40999985   3.38000011  56.25000000
C    20.10000038   4.05999994  55.47000122
C    18.73999977   4.00999975  55.26000214
C    18.25000000   4.61000013  54.06000137
C    19.11999893   5.15999985  53.13999939
C    20.52000046   5.15999985  53.37999725
C    21.47000122   5.75000000  52.50000000
C    22.82999992   5.69999981  52.69000244
C    23.31000137   4.99000025  53.82999802
C    22.46999931   4.46999979  54.77000427
C    21.07000160   4.59999990  54.58000183
C    16.81999969   4.36999989  53.86000061
C    16.21000099   3.79999995  55.00000000
C    14.86999989   3.45999980  55.00999832
C    24.75000000   5.38000011  54.10999680
H    25.07889366   4.81516075  54.98228455
H    20.48000145   3.75000000  56.44000244
H    18.75000000   5.65000010  52.23999786
H    21.04000092   6.30000019  51.66999817
H    23.45000076   6.25000000  51.98999786
H    22.86999893   4.15999985  55.72999954
H    14.37000084   3.07000017  55.89000320
H    24.92000198   6.47000027  54.06000137
H    25.19000053   4.99000025  53.18000031
