96

S    17.07999992   8.45000076  59.31999969
C    19.77000046   8.55000019  58.77999878
C    18.52000046   8.22000027  58.30999756
C    18.18000031   7.85000038  56.97000122
C    19.22000122   7.82000017  56.05999756
C    20.52000046   8.17000008  56.50000000
C    21.55999947   8.02999973  55.54000092
C    22.84000015   8.40999985  55.84999847
C    23.21000099   8.57999992  57.21000290
C    22.22999954   8.69999981  58.16999817
C    20.85000038   8.52000046  57.84999847
C    16.72999954   7.76999998  56.81999969
C    15.97000027   8.11999989  57.97000122
C    14.59000015   8.22000027  57.95999908
C    24.63000107   8.97000027  57.56999969
H    25.09281540   8.17965508  58.16098022
H    19.85000038   8.97999954  59.77000427
H    19.03000069   7.31999969  55.11000061
H    21.31000137   7.77999973  54.51000214
H    23.42000008   8.61999989  54.95999908
H    22.36000061   9.04999924  59.19000244
H    14.19999981   8.34000015  58.95999908
H    25.15000153   9.07999992  56.62000275
H    24.65999985  10.00000000  57.97000122
S    13.60999966   6.76999998  54.38000107
C    10.88999939   6.71999979  55.01999664
C    12.18000031   7.00000000  55.40999985
C    12.44999981   7.55000019  56.70000076
C    11.39999962   7.67000008  57.58999634
C    10.07999992   7.35000038  57.22000122
C     9.03999996   7.44999981  58.18999863
C     7.79999971   6.98999977  57.81000137
C     7.48000050   6.67000008  56.46999741
C     8.45000076   6.61999989  55.47999954
C     9.78999996   6.81999969  55.90999985
C    13.88000011   7.79999971  56.81999969
C    14.63000107   7.37999964  55.70000076
C    16.02000046   7.39000034  55.68000031
C     6.03999996   6.43000031  56.10000229
H     5.62668276   7.11411142  55.35888290
H    10.67999935   6.39999962  54.00000000
H    11.64999962   7.96000004  58.61000061
H     9.19999981   7.73999977  59.22000122
H     7.07000017   6.98999977  58.61999893
H     8.31999969   6.32999992  54.43999863
H    16.54999924   7.05999947  54.79000092
H     5.44000053   6.15999985  56.97999954
H     6.21000004   5.51000023  55.52000046
S    17.56000137   8.93000031  53.20000076
C    20.13999939   9.52000046  52.51999664
C    18.96999931   8.93000031  52.11999893
C    18.68999863   8.36000061  50.84000015
C    19.76000023   8.27999973  49.95999908
C    21.04999924   8.67000008  50.38999939
C    22.19000053   8.50000000  49.54999924
C    23.45000076   8.80999947  50.00999832
C    23.61000061   9.42000008  51.27999878
C    22.56000137   9.61999989  52.12999725
C    21.25999832   9.25000000  51.69000244
C    17.28000069   8.03999996  50.70000076
C    16.53000069   8.36999989  51.86000061
C    15.14999962   8.48999977  51.93999863
C    24.97999954   9.89000034  51.72000122
H    25.39341354   9.25562191  52.50406265
H    20.29999924  10.01000023  53.47999954
H    19.70000076   7.73000002  49.02999878
H    22.06000137   8.13000011  48.54000092
H    24.26000214   8.63000011  49.31000137
H    22.72000122  10.06000042  53.11999893
H    14.63000107   8.86999989  52.80000305
H    25.62999916   9.88000011  50.83000183
H    24.86000061  10.95000076  51.97000122
S    14.01000023   7.59000015  48.27999878
C    11.26000023   7.53000021  49.01000214
C    12.60000038   7.59000015  49.34999847
C    12.98999977   7.83999968  50.70000076
C    12.01000023   8.10000038  51.63999939
C    10.62999916   7.96000004  51.36000061
C     9.59999943   8.23000050  52.29999924
C     8.27000046   8.09000015  51.97999954
C     7.86999989   7.71000004  50.66999817
C     8.85999966   7.62000036  49.72000122
C    10.26000023   7.73000002  49.99000168
C    14.44000053   7.96000004  50.86000061
C    15.13000011   7.73000002  49.64000320
C    16.52000046   7.69999981  49.56999969
C     6.44000006   7.44000006  50.27000046
H     6.06358290   8.03658581  49.43904114
H    10.93999958   7.21000004  48.02000046
H    12.35000038   8.39999962  52.62000275
H    10.00000000   8.51000023  53.27000046
H     7.55000019   8.36000061  52.74000168
H     8.42000008   7.57000017  48.73000336
H    17.04000092   7.48000050  48.63999939
H     5.73000002   7.53999996  51.10000229
H     6.37000036   6.39999962  49.93999863
