96

S    16.88999939   8.71999931  59.45999908
C    19.52999878   8.85000038  58.75000000
C    18.30999947   8.25000000  58.50000000
C    17.86000061   7.76999998  57.22999954
C    18.86999893   7.42999983  56.35000229
C    20.20999908   7.75000000  56.66999817
C    21.22999954   7.35000038  55.76000214
C    22.53000069   7.78999996  55.90999985
C    22.80999947   8.64000034  57.01000214
C    21.90000153   8.98999977  57.97999954
C    20.55000114   8.55000019  57.81999969
C    16.40999985   7.75000000  57.08000183
C    15.72999954   8.28999996  58.18999863
C    14.34000015   8.38999939  58.16999817
C    24.23999977   9.04999924  57.30999756
H    24.67426872   8.59437275  58.19989395
H    19.68000031   9.55999947  59.54999924
H    18.63000107   6.78999996  55.51000214
H    20.89999962   6.80999994  54.88999939
H    23.34000015   7.50000000  55.26000214
H    22.19000053   9.44000053  58.93000031
H    13.88000011   8.60000038  59.13000107
H    24.79999924   8.94999981  56.37000275
H    24.30000114  10.13000011  57.50000000
S    13.28999996   7.32999992  54.45000076
C    10.59000015   7.27999973  55.08999634
C    11.87999916   7.53000021  55.52000046
C    12.18000031   7.86999989  56.86999893
C    11.17000008   8.18000031  57.77000046
C     9.84000015   8.02999973  57.31999969
C     8.73000050   8.19000053  58.20000076
C     7.42000008   8.05000019  57.81000137
C     7.17000008   7.62000036  56.47999573
C     8.19000053   7.53999996  55.54999924
C     9.53999996   7.59999990  55.97999954
C    13.61999989   7.99000025  57.04000092
C    14.32000065   7.55000019  55.87999725
C    15.70000076   7.46999979  55.90000153
C     5.75999975   7.26000023  56.06999969
H     5.35885429   7.95484161  55.33218002
H    10.32999992   6.98999977  54.08000183
H    11.30000019   8.27999973  58.83999634
H     8.90999985   8.38000011  59.26000214
H     6.65000010   8.23999977  58.54999924
H     7.90000010   7.14999962  54.56999969
H    16.22999954   7.34000015  54.95999908
H     5.05999994   7.27999973  56.90999985
H     5.68000031   6.28000021  55.59000015
S    13.34000015   5.15999985  51.46999741
C    10.59999943   4.86000013  52.08000183
C    11.92000008   4.63999987  52.38999939
C    12.32999992   4.07000017  53.63999939
C    11.36999989   3.63000011  54.52999878
C    10.00000000   3.73000002  54.18000031
C     8.93999958   3.17999983  54.97000122
C     7.62000036   3.45999980  54.71000290
C     7.22000027   4.11999989  53.50999832
C     8.23000050   4.65999985  52.76000214
C     9.61999989   4.53000021  53.04999924
C    13.78000069   4.05999994  53.76999664
C    14.51000023   4.65000010  52.70000076
C    15.88000107   4.92000008  52.68000031
C     5.78000021   4.46999979  53.25000000
H     5.41741705   3.92968035  52.37553406
H    10.29999924   5.26000023  51.11000061
H    11.64000034   3.01999998  55.38999939
H     9.09000015   2.53999996  55.84000015
H     6.84999990   3.05999994  55.35999680
H     7.97999954   5.22000027  51.86000061
H    16.38000107   5.19999981  51.76000214
H     5.09000015   4.09999990  54.02999878
H     5.68000031   5.55999994  53.20999908
S    16.92000008   3.25000000  56.18999863
C    19.67000008   3.68999982  55.61000061
C    18.34000015   3.84000015  55.28999710
C    17.95999908   4.38000011  54.02000046
C    19.00000000   4.73000002  53.16999817
C    20.38000107   4.63000011  53.47000122
C    21.42999840   5.05999994  52.62000275
C    22.75000000   4.92000008  52.97999954
C    23.09999847   4.48999977  54.29000092
C    22.11000061   3.94000006  55.06000137
C    20.72999954   4.07999992  54.75000000
C    16.52000046   4.39000034  53.80000305
C    15.85000038   3.68000007  54.84000397
C    14.47000027   3.56999993  54.87999725
C    24.51999855   4.07999992  54.59000015
H    25.00112724   4.53990030  55.45319748
H    19.92000008   3.19000006  56.53999710
H    18.81000137   5.13000011  52.18000031
H    21.09999847   5.36999989  51.63000107
H    23.38000107   4.97000027  52.09000015
H    22.40999985   3.24000001  55.84000015
H    13.94000053   3.25999999  55.77000046
H    25.13999939   4.28000021  53.70999908
H    24.61000061   2.99000001  54.71000290
