96

S    17.28999901   9.22000027  59.22999954
C    19.96999931   9.21000004  58.61000061
C    18.70000076   8.82999992  58.22999954
C    18.37000084   8.30000019  56.93999863
C    19.37000084   8.30000019  55.98999786
C    20.69000053   8.65999985  56.37000275
C    21.76000214   8.56000042  55.43000031
C    23.05999947   8.88000011  55.73999786
C    23.36000061   9.43000031  57.01000214
C    22.36999893   9.52000046  57.97000122
C    21.04999924   9.03999996  57.70999908
C    16.93000031   8.14000034  56.79000092
C    16.23999977   8.56999969  57.95999908
C    14.88000011   8.82000065  58.01000214
C    24.73999977   9.92999935  57.36999893
H    25.21055794   9.22416306  58.05444717
H    20.17000008   9.85999966  59.45999908
H    19.17000008   8.09000015  54.94999695
H    21.54000092   8.05999947  54.48999786
H    23.85999870   8.55000019  55.08999634
H    22.40999985  10.17000008  58.82999802
H    14.32999992   9.21000004  58.87000275
H    25.30999947   9.98000050  56.43000031
H    24.57999992  10.93999958  57.77000046
S    13.69999981   7.53999996  54.45000076
C    11.00999928   7.44999981  55.20999908
C    12.28000069   7.90999985  55.45000076
C    12.69999981   8.43000031  56.72000122
C    11.72000027   8.57999992  57.68000031
C    10.36000061   8.30000019  57.43000031
C     9.32999992   8.55000019  58.37999725
C     8.01000023   8.26000023  58.09999847
C     7.65999985   7.83999968  56.79000092
C     8.61999989   7.50000000  55.86000061
C     9.98999977   7.69999981  56.17000198
C    14.14999962   8.52000046  56.86000061
C    14.82999992   8.09000015  55.70000076
C    16.20000076   7.82000017  55.65000153
C     6.30999994   7.21000004  56.51000214
H     5.83394909   7.79262924  55.72132111
H    10.65000057   6.98999977  54.29000092
H    12.02000046   8.84000015  58.68999863
H     9.56999969   9.01000023  59.33000183
H     7.18999958   8.32999992  58.81999969
H     8.43999958   6.86999989  55.00000000
H    16.81999969   7.42000008  54.85000229
H     5.71000004   7.26999998  57.42000198
H     6.50000000   6.19000006  56.16000366
S    13.82999992   5.44000053  51.52000046
C    11.21000099   4.86000013  52.08000183
C    12.53000069   4.56999969  52.35000229
C    12.98999977   4.00000000  53.56999969
C    12.02000046   3.65000010  54.50000000
C    10.65000057   3.77999997  54.19000244
C     9.61000061   3.37000012  55.06999969
C     8.30000019   3.68999982  54.82999802
C     7.90999985   4.35999966  53.63999939
C     8.84000015   4.65999985  52.68000031
C    10.21000004   4.39000034  52.95999908
C    14.42000008   4.19999981  53.76999664
C    15.01999950   5.00999975  52.77000046
C    16.34000015   5.42999983  52.83000183
C     6.54999971   5.00999975  53.46000290
H     5.99210644   4.48071575  52.68753052
H    10.93000031   5.55999994  51.29000092
H    12.28000069   3.40000010  55.52000046
H    10.00000000   2.96000004  56.00000000
H     7.55000019   3.52999973  55.59000015
H     8.64999962   5.32999992  51.84000015
H    16.88999939   5.89999962  52.02000046
H     5.91000032   5.07999992  54.34999847
H     6.67999983   6.03999996  53.11000061
S    17.72999954   3.48000002  56.03000259
C    20.38999939   4.21000004  55.34999847
C    19.03000069   4.30000019  55.13999939
C    18.55999947   5.00000000  53.97999573
C    19.51000023   5.44000053  53.09000015
C    20.90999985   5.33999968  53.27000046
C    21.81999969   5.98000002  52.38999939
C    23.15000153   6.05000019  52.75000000
C    23.64999962   5.49000025  53.95999908
C    22.75000000   4.88999987  54.80999756
C    21.38999939   4.67999983  54.45999908
C    17.10000038   4.94000006  53.89999771
C    16.54000092   4.05000019  54.84000397
C    15.22999954   3.60000014  54.75000000
C    25.12000084   5.17000008  54.05000305
H    25.48962975   5.30505753  55.06648254
H    20.84000015   3.75999975  56.23000336
H    19.27999878   6.01000023  52.18999863
H    21.53000069   6.32000017  51.40999603
H    23.94000053   6.38000011  52.08000183
H    23.19999886   4.39000034  55.66999817
H    14.77000046   2.80999994  55.33000183
H    25.69000053   5.77000046  53.34000015
H    25.28000069   4.09000015  53.95000076
