96

S    17.01000023   8.64000034  59.43000031
C    19.72999954   8.56999969  58.82999802
C    18.45000076   8.19999981  58.48999786
C    18.09000015   7.77999973  57.16999817
C    19.09000015   7.73000002  56.22000122
C    20.39999962   8.17000008  56.52999878
C    21.38000107   8.11999989  55.50000000
C    22.70000076   8.38000011  55.79000092
C    23.05000114   8.80000019  57.11000061
C    22.11999893   8.92000008  58.11000061
C    20.76000023   8.56000042  57.85999680
C    16.64999962   7.72000027  56.95999908
C    15.93999958   8.23000050  58.08000183
C    14.55999947   8.40999985  58.04999924
C    24.48999786   8.98999977  57.51999664
H    24.81654739   8.43628597  58.40026093
H    19.88999939   9.02000046  59.80999756
H    18.86999893   7.37999964  55.20999908
H    21.04000092   7.63999987  54.59000015
H    23.47999954   7.92999983  55.18000031
H    22.32000160   9.10000038  59.15999985
H    14.11000061   8.76999950  58.96999741
H    25.23999977   9.00000000  56.72000122
H    24.48999786  10.03000069  57.84999847
S    13.52000046   7.44999981  54.36999893
C    10.80999947   7.40000010  54.94999695
C    12.07999992   7.63999987  55.40000153
C    12.38000011   8.17000008  56.69000244
C    11.28999901   8.47000027  57.49000168
C     9.96999931   8.15999985  57.11000061
C     8.85000038   8.23000050  57.97999954
C     7.55999994   7.85000038  57.70000076
C     7.32999992   7.32999992  56.38999939
C     8.36000061   7.23000002  55.48999786
C     9.68999958   7.63999987  55.79000092
C    13.82999992   8.15999985  56.88999939
C    14.57999992   7.83999968  55.72999954
C    15.95000076   7.59000015  55.75000000
C     6.01000023   6.65999985  56.06999969
H     5.57572222   7.10139704  55.17296600
H    10.67000008   7.03000021  53.94000244
H    11.46000004   8.82000065  58.50999832
H     9.21000004   8.60000038  58.94000244
H     6.78999996   7.81000042  58.46000290
H     8.22000027   6.53999996  54.65999985
H    16.46999931   7.37999964  54.81999969
H     5.32000017   6.88000011  56.90000153
H     6.19000006   5.59000015  55.93000031
S    17.38999939   9.06000042  53.06000137
C    20.05000114   9.40999985  52.34000397
C    18.79999924   8.96000004  51.98999786
C    18.47999954   8.56999969  50.65000153
C    19.52000046   8.42000008  49.75000000
C    20.85000038   8.73999977  50.10000229
C    21.96000099   8.47000027  49.25000000
C    23.25000000   8.63000011  49.69999695
C    23.45000076   9.22000027  50.97999954
C    22.43999863   9.55999947  51.84999847
C    21.11000061   9.28999996  51.40999603
C    17.04000092   8.36999989  50.51000214
C    16.31999969   8.67000008  51.69000244
C    14.93999958   8.85999966  51.72000122
C    24.86000061   9.61999989  51.35000229
H    25.42936516   8.90829468  51.94783401
H    20.17999840   9.78999996  53.34999847
H    19.29999924   8.05000019  48.75000000
H    21.73999977   8.18000031  48.22999954
H    24.06999969   8.69999981  48.99000168
H    22.70000076   9.98999977  52.81000137
H    14.44000053   9.13000011  52.64999771
H    25.25000000   9.81999969  50.34000015
H    24.84999847  10.59000015  51.84999847
S    13.71000099   7.81000042  48.15000153
C    11.05000019   7.62000036  48.89999771
C    12.28000069   8.17000008  49.13999939
C    12.72999954   8.64999962  50.41999817
C    11.76000023   8.78000069  51.39999771
C    10.40999985   8.48999977  51.11000061
C     9.39000034   8.67000008  52.09000015
C     8.10000038   8.25000000  51.90999985
C     7.75000000   7.68000031  50.65999985
C     8.73000050   7.30999994  49.75999832
C    10.06999969   7.76999998  49.91000366
C    14.17000008   8.60000038  50.58000183
C    14.88000011   8.22000027  49.40999985
C    16.26000023   8.07999992  49.38000107
C     6.34000015   7.23000002  50.34999847
H     5.90522003   7.62201500  49.43054581
H    10.86999989   7.03999996  47.98999786
H    12.02999973   9.15000057  52.37999725
H     9.68000031   8.93999958  53.11000061
H     7.32999992   8.36000061  52.67000198
H     8.64999962   6.65000010  48.90999603
H    16.72999954   7.69000006  48.48999786
H     5.80999947   7.50000000  51.26999664
H     6.30000019   6.12999964  50.33000183
