96

S    16.69000053   8.65999985  59.47000122
C    19.42000008   8.53999996  58.81999969
C    18.12000084   8.17000008  58.54000092
C    17.72999954   7.60999966  57.28000259
C    18.71000099   7.46999979  56.31000137
C    20.03000069   7.94000053  56.52999878
C    21.04000092   7.90000010  55.52999878
C    22.34000015   8.21000004  55.83000183
C    22.70999908   8.76999950  57.08000183
C    21.76000214   8.76999950  58.08000183
C    20.43000031   8.34000015  57.84999847
C    16.28999901   7.63000011  57.04999924
C    15.60999966   8.26000023  58.11999893
C    14.22000027   8.38000011  58.20999908
C    24.11999893   9.19000053  57.43999863
H    24.57036400   8.53232479  58.18346024
H    19.79999924   9.00000000  59.72999954
H    18.53000069   7.18999958  55.27000046
H    20.89999962   7.50999975  54.52999878
H    23.13999939   8.13000011  55.08999634
H    22.07999992   9.10000038  59.06999969
H    13.63000011   8.73000050  59.03999710
H    24.70999908   9.04999924  56.52000046
H    24.13999939  10.24000072  57.77000046
S    13.12000084   7.30999994  54.52999878
C    10.38000011   7.11999989  55.20000076
C    11.67000008   7.44999981  55.54000092
C    12.09000015   7.90999985  56.83000183
C    11.05000019   8.05000019  57.74000168
C     9.71000004   7.67000008  57.54000092
C     8.60999966   7.79999971  58.44999695
C     7.31999969   7.55000019  58.06000137
C     7.07999992   7.09000015  56.72999954
C     8.06999969   6.89000034  55.79999924
C     9.38000011   7.27999973  56.19999695
C    13.52000046   8.10000038  57.02999878
C    14.21000004   7.65999985  55.87999725
C    15.59000015   7.50999975  55.84000015
C     5.65000010   6.74000025  56.38999939
H     5.30113077   7.44485855  55.63530350
H    10.19999981   6.77999973  54.18000031
H    11.39000034   8.46000004  58.68999863
H     8.73999977   8.13000011  59.47999954
H     6.50000000   7.69999981  58.75999832
H     7.85000038   6.39999962  54.86000061
H    16.13999939   7.40000010  54.91000366
H     5.05000019   6.77999973  57.30999756
H     5.59000015   5.65999985  56.18999863
S    13.80000019   5.35000038  51.52000046
C    11.13000011   5.00000000  52.22999954
C    12.44999981   4.76000023  52.50999832
C    12.92000008   4.11999989  53.69999695
C    11.97000027   3.50000000  54.50000000
C    10.59999943   3.60000014  54.18000031
C     9.52000046   3.02999997  54.91000366
C     8.19000053   3.23000002  54.65000153
C     7.82999992   4.05999994  53.54999924
C     8.78999996   4.53000021  52.68000031
C    10.15999985   4.35999966  53.04000092
C    14.35999966   4.25000000  53.89999771
C    14.94999981   4.84000015  52.76000214
C    16.32999992   5.03000021  52.72999573
C     6.38999987   4.46000004  53.31999969
H     5.86361885   4.04743099  52.45929718
H    10.80000019   5.50000000  51.31999969
H    12.13000107   2.79000020  55.31000137
H     9.63999939   2.40999985  55.79999924
H     7.42999983   2.79000020  55.28999710
H     8.53999996   5.07000017  51.77999878
H    16.63999939   5.55000019  51.81999969
H     5.91000032   4.05000019  54.22000122
H     6.34000015   5.55000019  53.29000092
S    17.73999977   3.47000003  56.07999802
C    20.38000107   3.94000006  55.27000046
C    19.03000069   4.13999987  55.06999969
C    18.56999969   4.67000008  53.81999969
C    19.47999954   5.18000031  52.90999985
C    20.86999893   5.18000031  53.20999908
C    21.84000015   5.75999975  52.35000229
C    23.16999817   5.65999985  52.65999603
C    23.61999893   5.07000017  53.87000275
C    22.70999908   4.53000021  54.75999832
C    21.32999802   4.59999990  54.45000076
C    17.12000084   4.53999996  53.76999664
C    16.51000023   3.98999977  54.92000198
C    15.13000011   3.81999993  54.99000168
C    25.10000038   5.18000031  54.15000153
H    25.29133415   4.98866558  55.20588303
H    20.75000000   3.30000019  56.06999969
H    19.14999962   5.63000011  51.97999954
H    21.53000069   6.30000019  51.45000076
H    23.85000038   6.10000038  51.93999863
H    22.93999863   4.17000008  55.75000000
H    14.70999908   3.35000014  55.87999725
H    25.48000145   6.12999964  53.76999664
H    25.52000046   4.41000032  53.48999786
