96

S    16.80999947   8.47000027  59.41999817
C    19.47000122   8.19000053  58.92000198
C    18.20000076   7.96999979  58.43999863
C    17.88999939   7.55000019  57.11000061
C    18.86999893   7.69000006  56.14999771
C    20.20999908   7.95000029  56.52999878
C    21.31000137   7.88000011  55.63000107
C    22.56999969   8.25000000  56.03000259
C    22.76000023   8.84000015  57.29999924
C    21.77000046   8.71999931  58.23999786
C    20.48000145   8.19999981  57.91999817
C    16.45000076   7.59000015  56.90000153
C    15.77000046   8.13000011  58.02999878
C    14.40999985   8.42000008  58.04000092
C    24.13000107   9.36999989  57.69000244
H    24.54302597   8.74333954  58.48044968
H    19.68000031   8.47000027  59.94999695
H    18.67000008   7.37999964  55.13000107
H    21.01000023   7.90000010  54.58000183
H    23.43000031   8.27999973  55.37000275
H    22.00000000   9.18000031  59.20000076
H    13.90999985   8.56999969  58.99000168
H    24.68000031   9.35999966  56.73999786
H    24.02000046  10.40999985  58.02999878
S    13.19000053   7.65999985  54.33000183
C    10.51000023   7.57000017  55.11000061
C    11.80999947   7.83999968  55.43000031
C    12.25000000   8.19999981  56.75000000
C    11.26000023   8.30999947  57.70999908
C     9.89999962   8.01000023  57.44999695
C     8.90999985   7.99000025  58.47000122
C     7.60999966   7.59999990  58.27000046
C     7.25000000   7.18999958  56.95999908
C     8.14000034   7.30999994  55.91999817
C     9.51000023   7.67000008  56.11000061
C    13.69999981   8.27000046  56.84000015
C    14.34999943   7.79999971  55.66999817
C    15.72999954   7.59999990  55.70000076
C     5.78000021   6.89000034  56.72000122
H     5.30362511   7.58678675  56.03032303
H    10.22999954   7.07000017  54.19000244
H    11.52999973   8.46000004  58.75000000
H     9.30000019   8.40999985  59.40000153
H     6.85999966   7.63999987  59.05000305
H     7.78999996   7.22000027  54.89999771
H    16.35000038   7.57999992  54.80999756
H     5.25000000   6.86999989  57.68000031
H     5.59999990   5.86000013  56.38999939
S    13.40999985   5.27999973  51.73999786
C    10.72999954   5.00999975  52.34000397
C    12.02999973   4.72000027  52.70999908
C    12.44999981   4.11000013  53.93000031
C    11.44999981   3.81000018  54.84000397
C    10.10000038   3.91000009  54.43999863
C     9.02000046   3.50000000  55.27000046
C     7.71000004   3.74000025  54.91000366
C     7.35000038   4.53000021  53.79000092
C     8.36000061   4.82999992  52.90000153
C     9.71000004   4.48999977  53.18000031
C    13.89999962   4.09999990  54.06000137
C    14.55000019   4.82999992  53.02999878
C    15.90000057   5.15999985  53.00000000
C     5.95000029   4.99000025  53.43999863
H     5.48724413   4.30654526  52.72806549
H    10.48999977   5.73999977  51.56999969
H    11.59999943   3.19000006  55.70999908
H     9.32999992   2.98000002  56.17000198
H     6.98000002   3.23000002  55.54000092
H     8.14999962   5.55000019  52.11000061
H    16.26000023   5.47999954  52.02999878
H     5.38999987   5.09000015  54.38000107
H     5.98000002   6.01000023  53.04999924
S    17.14999962   3.30000019  56.26999664
C    19.85000038   3.71000004  55.52999878
C    18.50000000   3.91000009  55.31000137
C    18.09000015   4.71000004  54.19000244
C    19.01000023   5.35000038  53.37999725
C    20.38999939   5.18000031  53.64999771
C    21.32999802   5.77000046  52.76000214
C    22.65999985   5.58000040  53.04000092
C    23.12000084   4.59999990  53.95999908
C    22.21999931   4.00000000  54.80999756
C    20.82999992   4.30999994  54.71000290
C    16.62999916   4.71000004  54.10999680
C    15.98000050   3.96000004  55.12000275
C    14.65000057   3.54999995  55.10000229
C    24.54999924   4.13000011  53.95999908
H    25.10319901   4.52716875  54.81107330
H    20.17999840   2.94000006  56.23000336
H    18.70000076   6.00000000  52.56999969
H    21.00000000   6.34999990  51.90999985
H    23.34000015   6.10000038  52.36999893
H    22.44999886   3.17000008  55.47999954
H    14.27000046   2.91000009  55.90000153
H    24.89999962   4.44999981  52.97000122
H    24.60000038   3.03999996  53.90999603
