96

S    16.84999847   8.09000015  59.23999786
C    19.62000084   8.01999950  58.50000000
C    18.27999878   7.82999992  58.22999954
C    18.00000000   7.57000017  56.84999847
C    18.92000008   7.59999990  55.81999969
C    20.29999924   7.63999987  56.14999771
C    21.30000114   7.65999985  55.13999939
C    22.56999969   8.02999973  55.52000046
C    22.86999893   8.43000031  56.84999847
C    21.96000099   8.28999996  57.87000275
C    20.63999939   7.90000010  57.52999878
C    16.54999924   7.55999994  56.72000122
C    15.76000023   7.88000011  57.85999680
C    14.39000034   8.09000015  57.90000153
C    24.28999901   8.80000019  57.21000290
H    24.75281334   8.00965405  57.80097961
H    19.89999962   8.30999947  59.52000046
H    18.60000038   7.44999981  54.79000092
H    20.88999939   7.69000006  54.13999939
H    23.29999924   8.09000015  54.72000122
H    22.29000092   8.56000042  58.87000275
H    13.86000061   8.30999947  58.81999969
H    24.87999916   8.89999962  56.29000092
H    24.31999969   9.75000000  57.76000214
S    13.35999966   7.13999987  54.20000076
C    10.67000008   6.83000040  55.00000000
C    11.97999954   7.13000011  55.31000137
C    12.30000019   7.55000019  56.63999939
C    11.33999920   7.55999994  57.63000107
C     9.98000050   7.39000034  57.25000000
C     8.97000027   7.53999996  58.23999786
C     7.68000031   7.27999973  57.84000015
C     7.30999994   6.61000013  56.65000153
C     8.27999973   6.48999977  55.68000031
C     9.61999989   6.90000010  55.94999695
C    13.73000050   7.77999973  56.70000076
C    14.47999954   7.46999979  55.54000092
C    15.85999966   7.30999994  55.52999878
C     5.86000013   6.32999992  56.33999634
H     5.44188166   6.86859322  55.48958969
H    10.38000011   6.43000031  54.02999878
H    11.59000015   7.76999998  58.67000198
H     9.13999939   7.75000000  59.29000092
H     6.84999990   7.63999987  58.43999863
H     7.99000025   6.15000010  54.68999863
H    16.39000130   7.07000017  54.61000061
H     5.27999973   6.56000042  57.23999786
H     5.63000011   5.27999973  56.17000198
S    17.18000031   9.30999947  52.94000244
C    19.85999870   9.21000004  52.22999954
C    18.54999924   8.97999954  51.86000061
C    18.23999977   8.42000008  50.58000183
C    19.27999878   8.05000019  49.73999786
C    20.62000084   8.30999947  50.08999634
C    21.68000031   8.14000034  49.15999985
C    22.98999977   8.21000004  49.59999847
C    23.32999992   8.78000069  50.86000061
C    22.29999924   9.09000015  51.72000122
C    20.94000053   8.82999992  51.39999771
C    16.79000092   8.34000015  50.47999954
C    16.10000038   8.80999947  51.63000107
C    14.72000027   8.93999958  51.72000122
C    24.77000046   9.13999939  51.12999725
H    25.26907539   8.59101582  51.92852020
H    19.98999977   9.78999996  53.13000107
H    18.97999954   7.68000031  48.75999832
H    21.35000038   7.63000011  48.26000214
H    23.68999863   7.67000008  48.96999741
H    22.52000046   9.52999973  52.69000244
H    14.27999973   9.26000023  52.64999771
H    25.36000061   9.11000061  50.20000076
H    24.75000000  10.18000031  51.46999741
S    13.53999996   7.53000021  48.20999908
C    10.86999989   7.40000010  49.06000137
C    12.18000031   7.73000002  49.33000183
C    12.51000023   8.25000000  50.61999893
C    11.57999992   8.36000061  51.63000107
C    10.24000072   8.01000023  51.33999634
C     9.19000053   8.11999989  52.29000092
C     7.86999989   7.96999979  51.97999954
C     7.57999992   7.23000002  50.79999924
C     8.55000019   6.94000006  49.86999893
C     9.86999989   7.44999981  50.06000137
C    13.94999981   8.51000023  50.63000107
C    14.65000057   8.06999969  49.47999954
C    16.03000069   7.96000004  49.36999893
C     6.11999989   6.98000002  50.51000214
H     5.78477001   7.47214651  49.59703445
H    10.60999966   6.93000031  48.11999893
H    11.78999996   8.56999969  52.68000031
H     9.52000046   8.55000019  53.23999786
H     7.09000015   8.36000061  52.63000107
H     8.26000023   6.47000027  48.94000244
H    16.61000061   7.64999962  48.50000000
H     5.59000015   7.31999969  51.40999603
H     5.95000029   5.89999962  50.45000076
