96

S    17.00000000   8.52000046  59.40000153
C    19.68000031   8.59000015  58.61999893
C    18.38000107   8.26000023  58.31999969
C    17.94000053   7.92999983  57.00000000
C    18.89999962   7.76000023  56.02000427
C    20.26000023   8.07999992  56.25000000
C    21.27000046   8.09000015  55.24000168
C    22.56000137   8.40999985  55.56999969
C    22.95000076   8.82000065  56.86999893
C    21.97999954   8.85000038  57.84999847
C    20.65000153   8.43000031  57.58999634
C    16.48999977   7.86000013  56.84000015
C    15.86999989   8.21000004  58.06999969
C    14.48999977   8.15999985  58.20000076
C    24.37999916   9.22000027  57.16999817
H    24.77847672   8.67209339  58.02388000
H    19.97999954   8.97000027  59.59000015
H    18.63000107   7.53000021  55.00000000
H    21.07000160   7.73000002  54.22999954
H    23.38000107   8.34000015  54.85000229
H    22.20999908   9.15999985  58.86000061
H    14.13000011   8.43000031  59.18000031
H    24.92000198   9.03999996  56.24000168
H    24.40999985  10.31000042  57.29999924
S    13.17999935   7.17000008  54.59999847
C    10.47999954   6.98999977  55.33000183
C    11.78999996   7.21000004  55.70000076
C    12.20000076   7.72000027  56.97000122
C    11.18000031   7.88000011  57.88999939
C     9.85000038   7.46000004  57.65999603
C     8.78999996   7.46999979  58.61000061
C     7.50999975   7.09999990  58.27999878
C     7.22000027   6.57999992  56.98999786
C     8.21000004   6.44000006  56.04000092
C     9.48999977   6.98000002  56.35000229
C    13.63999939   7.86000013  57.11999893
C    14.30999947   7.57999992  55.90000153
C    15.69000053   7.53999996  55.73999786
C     5.84999990   6.00000000  56.72000122
H     5.32962322   6.67007446  56.03567123
H    10.38000011   6.43000031  54.40000153
H    11.39000034   8.17000008  58.92000198
H     8.86999989   8.00000000  59.55999756
H     6.74000025   7.32999992  59.01000214
H     7.96000004   6.05000019  55.06000137
H    16.18999863   7.26000023  54.80999756
H     5.29999971   5.92000008  57.65999603
H     5.92999983   5.01999950  56.23000336
S    16.86000061   9.11000061  53.15000153
C    19.59000015   9.36999989  52.44999695
C    18.31999969   8.93000031  52.15000153
C    17.97000122   8.36999989  50.87999725
C    18.96999931   8.22000027  49.94999695
C    20.32999992   8.50000000  50.24000168
C    21.42000008   8.36999989  49.34000015
C    22.70000076   8.69999981  49.73999786
C    22.95999908   9.17000008  51.04999924
C    21.96000099   9.27999973  51.97999954
C    20.62000084   9.11000061  51.52000046
C    16.53000069   8.30000019  50.63999939
C    15.80000019   8.67999935  51.79000092
C    14.40999985   8.65999985  51.84999847
C    24.28999901   9.78999996  51.43000031
H    25.01596832   9.04267883  51.75028229
H    19.84000015   9.61000061  53.47999954
H    18.75000000   7.82999992  48.95999908
H    21.24000168   8.14999962  48.29000092
H    23.45000076   8.71000004  48.95999908
H    22.15999985   9.70000076  52.95999908
H    13.96999931   8.90999985  52.81000137
H    24.70999908  10.34000015  50.56999969
H    24.06999969  10.57999992  52.15999985
S    13.32999992   7.55999994  48.18000031
C    10.64000034   7.34000015  49.06000137
C    11.92999935   7.78999996  49.23999786
C    12.28000069   8.19999981  50.56999969
C    11.38000011   8.26000023  51.62000275
C    10.03999901   7.88000011  51.38000107
C     9.01000023   8.10000038  52.34000397
C     7.73999977   7.65999985  52.06999969
C     7.37999964   7.16000032  50.79000092
C     8.36000061   6.83000040  49.86999893
C     9.65999985   7.36000013  50.08999634
C    13.71999931   8.28999996  50.68999863
C    14.44000053   7.86999989  49.54000092
C    15.82999992   7.82999992  49.52999878
C     5.95000029   6.78999996  50.47000122
H     5.57397366   7.40725088  49.65409470
H    10.42000008   6.76999998  48.15999985
H    11.75000000   8.60000038  52.57999802
H     9.35999966   8.46000004  53.30999756
H     7.00999975   7.65999985  52.87000275
H     8.09000015   6.42000008  48.89999771
H    16.36000061   7.42999983  48.67000198
H     5.42999983   6.91999960  51.42000198
H     5.91000032   5.75000000  50.12000275
