96

S    17.19000053   8.73000050  59.43999863
C    19.89999962   8.88000011  58.61999893
C    18.59000015   8.56000042  58.36000061
C    18.20999908   7.95000029  57.11999893
C    19.22999954   7.82999992  56.18999863
C    20.59000015   8.14999962  56.44000244
C    21.63999939   8.09000015  55.48999786
C    22.90999985   8.55000019  55.77000046
C    23.26999855   9.00000000  57.06999969
C    22.29999924   9.10000038  58.04000092
C    20.95999908   8.76000023  57.69000244
C    16.77000046   7.86000013  56.95999908
C    16.07999992   8.27999973  58.13000107
C    14.70000076   8.43999958  58.13000107
C    24.70000076   9.38000011  57.36999893
H    25.31863022   8.56227207  57.73975372
H    20.13999939   9.30999947  59.59000015
H    19.07999992   7.63000011  55.13000107
H    21.40999985   7.59000015  54.54999924
H    23.68000031   8.61999989  55.00999832
H    22.46999931   9.39999962  59.06999969
H    14.22999954   8.85000038  59.02000046
H    25.15000153   9.76000023  56.45000076
H    24.70000076  10.24000072  58.04000092
S    13.60999966   7.26999998  54.47999954
C    10.88999939   7.36999989  55.13999939
C    12.20000076   7.67000008  55.47000122
C    12.53999901   8.00000000  56.81999969
C    11.51999950   8.01999950  57.75000000
C    10.17000008   7.76999998  57.41000366
C     9.10000038   7.78999996  58.34999847
C     7.82999992   7.42000008  58.00000000
C     7.57999992   6.72999954  56.77999878
C     8.53999996   6.80999994  55.79999924
C     9.82999992   7.34000015  56.07999802
C    13.99000072   8.05000019  56.98999786
C    14.68999958   7.59999990  55.84000015
C    16.07999992   7.53000021  55.79000092
C     6.24000025   6.11000013  56.45000076
H     5.50728798   6.78580189  56.00895309
H    10.57000065   7.07999992  54.15000153
H    11.72000027   8.25000000  58.80000305
H     9.35999966   8.14000034  59.34999847
H     7.03999996   7.73000002  58.68000031
H     8.36000061   6.51000023  54.77000427
H    16.59000015   7.13999987  54.91000366
H     5.95000029   5.61999989  57.37999725
H     6.48000002   5.26000023  55.79000092
S    17.29999924   9.22999954  53.29000092
C    20.03999901   9.34000015  52.56000137
C    18.72999954   9.04999924  52.25000000
C    18.38999939   8.60999966  50.93000031
C    19.37999916   8.51000023  49.98000336
C    20.73999786   8.67999935  50.33000183
C    21.73999977   8.52000046  49.33000183
C    23.01000214   8.97000027  49.59000015
C    23.38999939   9.43000031  50.87999725
C    22.44999886   9.52999973  51.86999893
C    21.09000015   9.25000000  51.60999680
C    16.95999908   8.32999992  50.84000015
C    16.21999931   8.82000065  51.95000076
C    14.85000038   9.01000023  51.84000015
C    24.80999947   9.68999958  51.33999634
H    25.23066711   8.89857483  51.96030807
H    20.28000069   9.72000027  53.54999924
H    19.27000046   8.07999992  48.97999573
H    21.40000153   8.07999992  48.39000320
H    23.71000099   8.88000011  48.75999832
H    22.70999908   9.71000004  52.91999817
H    14.32999992   9.50000000  52.64999771
H    25.45999908   9.89000034  50.47000122
H    24.84000015  10.64000034  51.88000107
S    13.90999985   7.63000011  48.27000046
C    11.14999962   7.57000017  48.83999634
C    12.43999958   7.82999992  49.23999786
C    12.75000000   8.52000046  50.45999908
C    11.72000027   8.71999931  51.35000229
C    10.36999893   8.42000008  51.04999924
C     9.39000034   8.56000042  52.08000183
C     8.06999969   8.39999962  51.72000122
C     7.79999971   7.95000029  50.40000153
C     8.73000050   7.73000002  49.40999985
C    10.10000038   7.92000008  49.72999954
C    14.19000053   8.57999992  50.68000031
C    14.96000099   7.97999954  49.65000153
C    16.34000015   7.81000042  49.69999695
C     6.38999987   7.44999981  50.20000076
H     5.83437300   8.08398438  49.50902939
H    10.90999985   7.09999990  47.88999939
H    11.90000057   9.06000042  52.36999893
H     9.63000011   8.65999985  53.13000107
H     7.25000000   8.42000008  52.43000031
H     8.47000027   7.27999973  48.44999695
H    16.90000153   7.51999950  48.81999969
H     5.92999983   7.44000006  51.18999863
H     6.34999990   6.42000008  49.81999969
