96

S    17.63000107   8.53999996  59.45999908
C    20.31999969   8.36999989  58.74000168
C    19.00000000   8.15999985  58.40999985
C    18.59000015   7.88000011  57.06999969
C    19.56999969   7.78999996  56.10000229
C    20.93000031   8.01999950  56.40999603
C    21.93000031   7.92000008  55.38999939
C    23.21000099   8.34999943  55.63000107
C    23.52999878   9.04999924  56.81999969
C    22.62000084   9.00000000  57.84999847
C    21.31999969   8.42000008  57.72999573
C    17.13999939   7.96999979  56.95000076
C    16.47999954   8.45000076  58.11000061
C    15.10000038   8.56999969  58.13999939
C    24.99000168   9.26999950  57.14000320
H    25.29602814   8.68641376  58.00826263
H    20.55000114   8.78999996  59.71000290
H    19.20999908   7.59000015  55.08999634
H    21.57999992   7.55999994  54.43000031
H    24.03000069   8.01999950  55.00000000
H    22.98999977   9.31999969  58.81999969
H    14.61999989   8.63000011  59.12000275
H    25.55999947   9.01000023  56.24000168
H    25.13000107  10.29999924  57.48000336
S    14.01999950   7.22000027  54.45999908
C    11.31999969   7.03999996  55.20999908
C    12.58999920   7.49000025  55.47999954
C    12.94000053   7.99000025  56.77999878
C    11.94000053   7.96999979  57.72999573
C    10.59000015   7.60999966  57.47000122
C     9.52999973   7.60999966  58.41999817
C     8.23999977   7.30999994  58.04999924
C     7.92000008   6.97000027  56.70999908
C     8.92000008   6.90000010  55.77000046
C    10.26000023   7.22000027  56.12999725
C    14.35999966   8.26000023  56.98999786
C    15.00000000   7.81000042  55.80999756
C    16.39000130   7.69999981  55.79999924
C     6.51000023   6.57000017  56.31999969
H     5.97527456   7.34000444  55.76388550
H    11.09000015   6.58999968  54.25000000
H    12.18999958   8.18000031  58.76999664
H     9.73999977   7.85000038  59.45999908
H     7.44000006   7.37999964  58.77999878
H     8.78000069   6.58999968  54.72999954
H    16.88999939   7.36999989  54.88999939
H     6.00000000   6.24000025  57.22999954
H     6.61999989   5.61999989  55.77999878
S    17.80999947   9.13999939  53.16999817
C    20.55999947   9.09000015  52.42000198
C    19.23999977   8.76999950  52.18000031
C    18.82999992   8.43000031  50.84999847
C    19.77000046   8.39999962  49.84000397
C    21.14999962   8.56000042  50.10000229
C    22.20000076   8.55000019  49.13999939
C    23.52999878   8.76999950  49.41999817
C    23.85000038   9.39000034  50.65000153
C    22.88999939   9.43000031  51.63000107
C    21.54000092   9.06000042  51.39999771
C    17.38999939   8.47000027  50.65999985
C    16.69000053   8.88000011  51.81999969
C    15.31000042   9.10000038  51.84999847
C    25.22999954   9.94999981  50.93000031
H    25.81328583   9.31692028  51.59864426
H    20.81000137   9.38000011  53.43999863
H    19.38999939   8.15999985  48.85000229
H    21.96000099   8.39999962  48.09000015
H    24.20999908   8.67999935  48.57999802
H    23.15000153   9.71000004  52.64999771
H    14.78999996   9.19000053  52.80000305
H    25.69999886  10.21999931  49.98000336
H    24.97999954  10.93000031  51.36000061
S    14.25000000   7.86999989  48.23999786
C    11.57999992   7.57999992  48.92000198
C    12.81999969   8.05000019  49.27999878
C    13.10999966   8.51000023  50.59999847
C    12.01000023   8.65999985  51.43000031
C    10.67999935   8.38000011  51.04999924
C     9.56999969   8.56000042  51.90999985
C     8.34000015   8.05999947  51.53999710
C     8.19000053   7.26999998  50.37000275
C     9.17000008   7.27999973  49.40999985
C    10.47000027   7.72000027  49.79000092
C    14.53999996   8.76000023  50.73999786
C    15.26999950   8.34999943  49.59999847
C    16.65999985   8.30000019  49.47999954
C     6.80000019   6.76000023  50.04000092
H     6.34421778   7.56474018  49.46315002
H    11.43000031   7.13999987  47.93000031
H    12.18999958   8.96000004  52.45999908
H     9.81000042   9.17000008  52.77999878
H     7.37999964   8.23999977  52.01000214
H     9.02999973   7.00999975  48.36000061
H    17.11000061   7.95000029  48.54999924
H     6.21000004   6.74000025  50.97000122
H     6.84000015   5.75999975  49.59999847
