96

S    16.77000046   8.88000011  59.47000122
C    19.45000076   9.02000046  58.68000031
C    18.17000008   8.60999966  58.41999817
C    17.78000069   8.06999969  57.15000153
C    18.76000023   7.85000038  56.19999695
C    20.10000038   8.25000000  56.43000031
C    21.14000130   8.09000015  55.47000122
C    22.40999985   8.55000019  55.72999954
C    22.76000023   9.15000057  56.97000122
C    21.78999901   9.28999996  57.93000031
C    20.45000076   8.85000038  57.69000244
C    16.34000015   7.96000004  57.01000214
C    15.65999985   8.47999954  58.13999939
C    14.27999973   8.56000042  58.27999878
C    24.20999908   9.47000027  57.23999786
H    24.66424179   8.72475815  57.89297485
H    19.70999908   9.67000008  59.51000214
H    18.56999969   7.36999989  55.25000000
H    20.78000069   7.83999968  54.47000122
H    23.21000099   8.52999973  55.00000000
H    22.00000000   9.63999939  58.94000244
H    13.78000069   9.00000000  59.13999939
H    24.82000160   9.61999989  56.35000229
H    24.14999962  10.39999962  57.81000137
S    13.01000023   7.62000036  54.61999893
C    10.32999992   7.71000004  55.33000183
C    11.63000011   7.96000004  55.68000031
C    12.05999947   8.21000004  57.02999878
C    11.03999996   8.46000004  57.91999817
C     9.68999958   8.30999947  57.50999832
C     8.63000011   8.38999939  58.46000290
C     7.30999994   8.06999969  58.23999786
C     6.94999981   7.64999962  56.93000031
C     7.90000010   7.46999979  55.93999863
C     9.23999977   7.82000017  56.24000168
C    13.50999928   8.23000050  57.15999985
C    14.14999962   7.85000038  55.94999695
C    15.53999996   7.76999998  55.87999725
C     5.50000000   7.28999996  56.69000244
H     5.25080776   7.58903027  55.67187500
H    10.00000000   7.51999950  54.31000137
H    11.16000080   8.60999966  58.99000168
H     8.97999954   8.64000034  59.45999908
H     6.51000023   8.15999985  58.96999741
H     7.63999987   7.09999990  54.94999695
H    15.98000050   7.40000010  54.95999908
H     4.79999971   7.78999996  57.36999893
H     5.42000008   6.19999981  56.76000214
S    12.88000011   5.33999968  51.33999634
C    10.15999985   4.96000004  52.04999924
C    11.50000000   4.90000010  52.36999893
C    11.95000076   4.46999979  53.66000366
C    10.98000050   4.13000011  54.58000183
C     9.59999943   4.13999987  54.27999878
C     8.59000015   3.67000008  55.17000198
C     7.28999996   3.45000005  54.78000259
C     6.85999966   3.88999987  53.50000000
C     7.76999998   4.51999998  52.68000031
C     9.17000008   4.56999969  52.97000122
C    13.40000057   4.46000004  53.73000336
C    14.07999992   4.96000004  52.58999634
C    15.44000053   5.26999998  52.55000305
C     5.52999973   3.40999985  52.97999954
H     5.08006954   4.01704884  52.19440842
H     9.76000023   5.38000011  51.12999725
H    11.36999989   3.77999997  55.54000092
H     8.89000034   3.38999987  56.18000031
H     6.65000010   2.76999998  55.34000015
H     7.57000017   4.71000004  51.63000107
H    15.90999985   5.78999996  51.72000122
H     5.69000006   2.38000011  52.62000275
H     4.90999985   3.42000008  53.88999939
S    16.76000023   3.68000007  55.89000320
C    19.45000076   4.09000015  55.24000168
C    18.12000084   4.32000017  54.94999695
C    17.71000099   4.99000025  53.75999832
C    18.68000031   5.50000000  52.90999985
C    20.03999901   5.38999987  53.25000000
C    21.09999847   5.84999990  52.42000198
C    22.43999863   5.59000015  52.57999802
C    22.77000046   4.79999971  53.70999908
C    21.84000015   4.35999966  54.61999893
C    20.45999908   4.63000011  54.40000153
C    16.26000023   4.90999985  53.61999893
C    15.59000015   4.28000021  54.69999695
C    14.22999954   4.02999973  54.78000259
C    24.20000076   4.42999983  54.06000137
H    24.72621155   4.95621300  54.85643005
H    19.84000015   3.45000005  56.03000259
H    18.38000107   5.98999977  51.98999786
H    20.76999855   6.43000031  51.56000137
H    23.19999886   5.98000002  51.90000153
H    22.11000061   3.75999975  55.48999786
H    13.92000008   3.40000010  55.61000061
H    24.89000130   4.67999983  53.25000000
H    24.30999947   3.35999990  54.25000000
