96

S    16.81999969   8.93000031  59.22000122
C    19.51000023   8.93000031  58.60000229
C    18.23999977   8.57999992  58.20000076
C    17.94000053   8.10000038  56.88999939
C    18.90999985   8.01999950  55.90000153
C    20.22999954   8.36999989  56.27999878
C    21.31000137   8.18000031  55.37000275
C    22.53999901   8.71000004  55.63999939
C    22.85000038   9.22999954  56.93000031
C    21.84999847   9.22000027  57.87000275
C    20.48000145   8.93999958  57.56999969
C    16.50000000   8.10000038  56.70000076
C    15.77999973   8.39999962  57.88999939
C    14.39000034   8.47999954  57.88999939
C    24.27999878   9.61000061  57.25999832
H    24.66400909   9.01976490  58.09201813
H    19.68000031   9.00000000  59.66999817
H    18.60999870   7.82000017  54.87999725
H    21.04999924   7.62000036  54.47000122
H    23.29000092   8.52999973  54.87999725
H    22.07999992   9.52000046  58.88999939
H    13.96999931   8.56000042  58.88999939
H    24.86000061   9.36999989  56.36000061
H    24.34999847  10.67000008  57.50999832
S    13.30000019   7.42999983  54.27000046
C    10.62000084   7.16000032  54.95999908
C    11.89000034   7.53999996  55.33000183
C    12.20000076   8.09000015  56.60999680
C    11.13999939   8.25000000  57.48000336
C     9.82999992   7.83999968  57.14000320
C     8.78999996   7.99000025  58.09999847
C     7.49000025   7.59999990  57.87000275
C     7.26000023   6.96000004  56.62000275
C     8.19000053   6.86999989  55.61000061
C     9.53999996   7.23000002  55.86999893
C    13.64999962   8.19999981  56.72999954
C    14.40999985   7.86000013  55.59000015
C    15.78999996   7.73999977  55.54999924
C     5.82000017   6.71000004  56.24000168
H     5.42009640   7.48838377  55.59015656
H    10.47000027   6.58999968  54.03999710
H    11.18000031   8.57999992  58.52000427
H     8.93999958   8.53999996  59.02000046
H     6.67000008   7.88999987  58.53000259
H     7.88999987   6.54999971  54.61000061
H    16.36999893   7.44999981  54.66999817
H     5.26999998   6.54999971  57.18000031
H     5.88000011   5.75999975  55.70000076
S    16.95000076   9.34000015  52.81999969
C    19.68000031   9.55000019  52.06999969
C    18.37000084   9.27999973  51.76000214
C    18.02000046   8.82999992  50.44000244
C    19.01000023   8.69000053  49.47999954
C    20.36999893   8.89000034  49.80999756
C    21.38999939   8.71000004  48.83999634
C    22.67999840   9.13000011  49.09000015
C    23.03999901   9.57999992  50.38999939
C    22.06000137   9.73999977  51.33999634
C    20.72000122   9.31999969  51.13999939
C    16.57999992   8.65999985  50.30000305
C    15.85000038   8.98999977  51.46999741
C    14.47000027   9.15999985  51.55000305
C    24.44000053  10.08999920  50.65999985
H    24.98797607   9.59895515  51.46417618
H    20.00000000   9.98000050  53.02000046
H    18.78000069   8.38999939  48.46000290
H    21.17000198   8.28999996  47.85999680
H    23.45999908   9.25000000  48.34000015
H    22.30999947  10.25000000  52.27000427
H    14.02999973   9.35000038  52.51999664
H    25.07999802  10.07999992  49.77000427
H    24.17000008  11.14999962  50.77999878
S    13.35000038   7.76999998  47.97999954
C    10.69000053   7.49000025  48.81999969
C    11.95000076   8.00000000  49.02999878
C    12.30000019   8.67999935  50.24000168
C    11.31999969   8.85000038  51.18999863
C     9.98999977   8.40999985  51.00999832
C     9.02000046   8.52000046  52.04000092
C     7.69999981   8.22000027  51.77000046
C     7.34000015   7.62000036  50.52999878
C     8.30000019   7.40999985  49.58000183
C     9.65999985   7.77999973  49.75999832
C    13.73999977   8.85000038  50.40000153
C    14.42999935   8.42000008  49.22999954
C    15.80999947   8.38999939  49.15999985
C     5.96000004   7.07999992  50.21999741
H     5.47857857   7.63221884  49.41291046
H    10.52000046   6.78999996  48.00000000
H    11.57999992   9.02000046  52.22999954
H     9.40999985   8.76999950  53.02000046
H     6.98999977   8.21000004  52.58999634
H     8.17000008   6.71999979  48.75000000
H    16.29999924   8.02999973  48.26000214
H     5.40999985   7.17999983  51.16000366
H     6.05000019   6.00000000  50.06000137
