96

S    16.60000038   8.89000034  59.54999924
C    19.23999977   9.09000015  58.75999832
C    18.00000000   8.53999996  58.53000259
C    17.65999985   8.10000038  57.21000290
C    18.63000107   7.97999954  56.23000336
C    19.97999954   8.36000061  56.45999908
C    21.04000092   8.22000027  55.52000046
C    22.29000092   8.71999931  55.77999878
C    22.56000137   9.18000031  57.09000015
C    21.55999947   9.35999966  58.02000046
C    20.22000122   8.97000027  57.74000168
C    16.21000099   8.01000023  57.06999969
C    15.51000023   8.47000027  58.20999908
C    14.11999893   8.55000019  58.22000122
C    24.00000000   9.38000011  57.50999832
H    24.43507767   8.70242119  58.24463654
H    19.48999977   9.64999962  59.65999985
H    18.32999992   7.76000023  55.20999908
H    20.81999969   7.76999998  54.54999924
H    23.09000015   8.52000046  55.07999802
H    21.71999931   9.59999943  59.06999969
H    13.57999992   8.97999954  59.05000305
H    24.53000069   9.34000015  56.53999710
H    24.03000069  10.39999962  57.90999985
S    13.00000000   7.23999977  54.64000320
C    10.26000023   7.28999996  55.33000183
C    11.56999969   7.55999994  55.65000153
C    11.98999977   8.14000034  56.88999939
C    11.05999947   8.27999973  57.91999817
C     9.72000027   7.96999979  57.61000061
C     8.63000011   8.14999962  58.50999832
C     7.32999992   7.78999996  58.27000046
C     6.94999981   7.27999973  57.00000000
C     7.92999983   7.09999990  56.05999756
C     9.28999996   7.42999983  56.35000229
C    13.43000031   8.23999977  57.04000092
C    14.13000011   7.69999981  55.93000031
C    15.51000023   7.57000017  55.93999863
C     5.53999996   6.83000040  56.65999985
H     5.10464287   7.52942657  55.94630051
H     9.89999962   6.91999960  54.36999893
H    11.26999950   8.57999992  58.94000244
H     8.92000008   8.56999969  59.47999954
H     6.65999985   7.73000002  59.12000275
H     7.73999977   6.65000010  55.07999802
H    16.06999969   7.26000023  55.06999969
H     4.79999971   6.72999954  57.45999908
H     5.60999966   5.80999947  56.24000168
S    17.13000107   9.42000008  53.44999695
C    19.80999947   9.40999985  52.67000198
C    18.51000023   9.04999924  52.39999771
C    18.11000061   8.52999973  51.11999893
C    19.04999924   8.26000023  50.14999771
C    20.38999939   8.63000011  50.40000153
C    21.45999908   8.47000027  49.47999954
C    22.76000023   8.82999992  49.77000427
C    23.09000015   9.56999969  50.93999863
C    22.10000038   9.70000076  51.88000107
C    20.79999924   9.18000031  51.66999817
C    16.67000008   8.64999962  50.90999985
C    16.03999901   9.15999985  52.06999969
C    14.65000057   9.23999977  52.11999893
C    24.54999924   9.85999966  51.18000031
H    25.00626945   9.11856174  51.83588791
H    20.10999870  10.14999962  53.40000153
H    18.72999954   7.88999987  49.18000031
H    21.28000069   7.96000004  48.53000259
H    23.52999878   8.36000061  49.15999985
H    22.27000046  10.36000061  52.74000168
H    14.32000065   9.26999950  53.15000153
H    25.06000137  10.03999901  50.21999741
H    24.54999924  10.81999969  51.70000076
S    13.43000031   7.99000025  48.53000259
C    10.78999996   7.55000019  49.38000107
C    12.05000019   8.02999973  49.65000153
C    12.41000080   8.61999989  50.90999985
C    11.40999985   8.73999977  51.86000061
C    10.08999920   8.28999996  51.65000153
C     9.02999973   8.50000000  52.57999802
C     7.73000002   8.22000027  52.23999786
C     7.39000034   7.73999977  50.94999695
C     8.42000008   7.42999983  50.08999634
C     9.78999996   7.72000027  50.35999680
C    13.82999992   8.92000008  51.03000259
C    14.50000000   8.52999973  49.85000229
C    15.88000107   8.40999985  49.78000259
C     5.92999983   7.42999983  50.66999817
H     5.57364559   7.92176914  49.76486206
H    10.64000034   6.98000002  48.47000122
H    11.64000034   9.27999973  52.77999878
H     9.19000053   9.07999992  53.48999786
H     6.98999977   8.52999973  52.97999954
H     8.21000004   7.13999987  49.06999969
H    16.39999962   8.10000038  48.88000107
H     5.32000017   7.78999996  51.51000214
H     5.84000015   6.34000015  50.72999954
