96

S    16.48999977   9.42000008  59.13000107
C    19.26000023   9.15999985  58.66000366
C    17.95999908   8.93999958  58.26000214
C    17.64000130   8.43000031  56.97000122
C    18.71000099   8.05000019  56.18000031
C    20.06999969   8.30000019  56.49000168
C    21.14999962   8.05999947  55.59000015
C    22.42000198   8.48999977  55.93000031
C    22.67000008   9.11000061  57.18000031
C    21.65999985   9.25000000  58.11999893
C    20.32999992   8.89000034  57.77999878
C    16.21000099   8.25000000  56.70999908
C    15.48999977   8.80999947  57.80000305
C    14.09999943   8.85999966  57.81000137
C    24.10000038   9.46000004  57.50999832
H    24.49286270   8.78141785  58.26715469
H    19.40000153   9.61000061  59.64000320
H    18.44000053   7.68000031  55.20000076
H    20.94000053   7.63999987  54.61000061
H    23.19000053   8.18000031  55.22999573
H    21.91999817   9.52999973  59.13999939
H    13.69999981   9.44000053  58.63999939
H    24.69000053   9.34000015  56.59000015
H    24.17000008  10.50000000  57.85999680
S    13.12999916   7.17999983  54.29999924
C    10.43000031   7.13999987  54.87999725
C    11.67000008   7.60999966  55.21999741
C    12.05000019   8.19999981  56.46999741
C    11.00999928   8.43000031  57.35000229
C     9.65999985   8.10999966  57.02999878
C     8.64999962   8.19999981  58.02000046
C     7.34000015   8.01000023  57.63999939
C     7.00000000   7.59000015  56.32999802
C     8.01000023   7.22000027  55.47000122
C     9.38000011   7.48000050  55.77000046
C    13.48000050   8.30999947  56.68000031
C    14.19999981   7.75000000  55.59000015
C    15.57999992   7.59000015  55.65000153
C     5.61999989   7.09000015  55.98999786
H     5.05681610   7.72447252  55.30562210
H    10.26000023   6.61000013  53.94000244
H    11.18999958   8.84000015  58.34000015
H     8.97999954   8.23000050  59.06000137
H     6.61999989   8.11999989  58.44999695
H     7.90000010   6.50000000  54.65999985
H    16.15999985   7.05999947  54.91000366
H     5.03999996   7.07000017  56.91999817
H     5.69000006   6.07999992  55.56999969
S    13.67000008   5.26000023  51.31999969
C    10.97000027   4.81999969  51.75000000
C    12.25999928   4.61999989  52.16999817
C    12.64999962   4.01999998  53.40999985
C    11.64000034   3.58000016  54.23999786
C    10.27999973   3.67000008  53.83999634
C     9.23999977   3.19000006  54.66999817
C     7.92999983   3.51000023  54.38999939
C     7.59999990   4.07999992  53.13000107
C     8.57999992   4.39000034  52.21000290
C     9.94999981   4.25000000  52.56000137
C    14.07999992   4.18000031  53.67000198
C    14.78999996   4.85000038  52.63999939
C    16.10000038   5.32000017  52.72999573
C     6.14000034   4.11999989  52.77000046
H     5.99104309   3.31846952  52.04649353
H    10.70000076   5.40000010  50.86999893
H    11.87999916   2.93000007  55.07999802
H     9.46000004   2.66999984  55.59999847
H     7.13000011   3.17000008  55.05000305
H     8.31999969   4.81999969  51.25000000
H    16.65999985   5.75999975  51.90999985
H     5.50000000   4.05000019  53.66000366
H     5.88999987   5.07000017  52.28000259
S    17.28000069   3.81999993  56.24000168
C    19.97999954   4.26000023  55.65999985
C    18.67000008   4.42999983  55.31000137
C    18.26000023   5.05000019  54.08000183
C    19.22999954   5.60999966  53.27999878
C    20.59999847   5.42000008  53.61000061
C    21.61000061   5.89999962  52.74000168
C    22.95999908   5.69999981  52.91999817
C    23.26999855   4.88999987  54.03999710
C    22.37999916   4.35999966  54.94999695
C    21.00000000   4.63999987  54.75000000
C    16.82999992   4.92000008  53.85000229
C    16.18999863   4.18000031  54.87999725
C    14.85000038   3.82999992  54.78000259
C    24.72999954   4.57999992  54.31999969
H    25.13844109   5.07442856  55.20137024
H    20.29000092   3.74000025  56.56999969
H    19.01000023   6.14000034  52.35000229
H    21.37000084   6.63000011  51.97000122
H    23.78000069   6.15000010  52.36999893
H    22.65000153   3.75999975  55.80999756
H    14.32999992   3.45000005  55.65000153
H    25.29000092   4.86000013  53.41999817
H    24.79999924   3.48000002  54.36000061
