96

S    16.23999977   9.06999969  59.01000214
C    18.98999977   9.06000042  58.30999756
C    17.67000008   8.85000038  57.97999954
C    17.28000069   8.34000015  56.70000076
C    18.27999878   8.06999969  55.79000092
C    19.64999962   8.25000000  56.11000061
C    20.69999886   7.99000025  55.18000031
C    22.01000023   8.09000015  55.58000183
C    22.34000015   8.97000027  56.63999939
C    21.37000084   9.22999954  57.58999634
C    20.03000069   8.80000019  57.38999939
C    15.85000038   8.10000038  56.55000305
C    15.15999985   8.56999969  57.70000076
C    13.78000069   8.73000050  57.77000046
C    23.78999901   9.21000004  56.97000122
H    24.22305298   8.66336155  57.80770874
H    19.29999924   9.44999981  59.27999878
H    18.15000153   7.83999968  54.72999954
H    20.48000145   7.68000031  54.15999985
H    22.79999924   7.67000008  54.95999908
H    21.67000008   9.72000027  58.50999832
H    13.26000023   9.00000000  58.68000031
H    24.31999969   9.17000008  56.00999832
H    23.74000168  10.27999973  57.18999863
S    12.64999962   7.50000000  54.12000275
C     9.98000050   7.22000027  54.88999939
C    11.26000023   7.62000036  55.20000076
C    11.59999943   7.99000025  56.55000305
C    10.59000015   8.13000011  57.48000336
C     9.25000000   7.78999996  57.15000153
C     8.22000027   7.92000008  58.11999893
C     6.90999985   7.63999987  57.78999710
C     6.56000042   7.26000023  56.46999741
C     7.55000019   7.07000017  55.54000092
C     8.92000008   7.35000038  55.81999969
C    13.02000046   8.28999996  56.68000031
C    13.69999981   7.96999979  55.47999954
C    15.07999992   7.82000017  55.40999985
C     5.13000011   6.89000034  56.16000366
H     4.72186852   7.28381109  55.22917557
H     9.72000027   6.78999996  53.93000031
H    10.78999996   8.43999958  58.50000000
H     8.56000042   8.13000011  59.13000107
H     6.15000010   7.83999968  58.54000092
H     7.28999996   6.61999989  54.58000183
H    15.67000008   7.78999996  54.50000000
H     4.51999998   7.04999971  57.05999756
H     5.03000021   5.79999971  56.09000397
S    13.47000027   5.55999994  51.38999939
C    10.80999947   5.00999975  51.93000031
C    12.11999989   4.90000010  52.34000397
C    12.55000019   4.21999979  53.52000427
C    11.59000015   3.73000002  54.38999939
C    10.22999954   3.86999989  54.03999710
C     9.22999954   3.50000000  54.99000168
C     7.90000010   3.51999998  54.66999817
C     7.51999950   4.00000000  53.37999725
C     8.43999958   4.46000004  52.47000122
C     9.82999992   4.42999983  52.77000046
C    13.96999931   4.44000006  53.80000305
C    14.55999947   5.14999962  52.72999573
C    15.92000008   5.46000004  52.75000000
C     6.05999994   4.21000004  53.02000046
H     5.69039440   3.66269922  52.15284729
H    10.53999996   5.51000023  51.00999832
H    11.73999977   3.38999987  55.40999985
H     9.53999996   3.07000017  55.93999863
H     7.13000011   3.23000002  55.38000107
H     8.23000050   4.90999985  51.51000214
H    16.52000046   5.65999985  51.86999893
H     5.58000040   4.00000000  53.99000168
H     6.05000019   5.27999973  52.78999710
S    17.18000031   3.88999987  56.20999908
C    19.79999924   4.15000010  55.54000092
C    18.52000046   4.56999969  55.27000046
C    18.13999939   5.10999966  54.00000000
C    19.13999939   5.44000053  53.11000061
C    20.50000000   5.18000031  53.40000153
C    21.55999947   5.65000010  52.57999802
C    22.85000038   5.53999996  53.04000092
C    23.19999886   4.81999969  54.20999908
C    22.20000076   4.36999989  55.04000092
C    20.84000015   4.55000019  54.65000153
C    16.69000053   5.09000015  53.86000061
C    16.05999947   4.40000010  54.93000031
C    14.72000027   4.01999998  54.91000366
C    24.65999985   4.51999998  54.51000214
H    25.05969810   4.91256094  55.44500732
H    20.09000015   3.71000004  56.49000168
H    18.84000015   6.05999994  52.25999832
H    21.31000137   6.26999950  51.72000122
H    23.59000015   6.05999994  52.44999695
H    22.37999916   3.75999975  55.91999817
H    14.28999996   3.47000003  55.73999786
H    25.26000023   4.86000013  53.66000366
H    24.82000160   3.42999983  54.52999878
