96

S    16.67000008   8.30999947  59.40000153
C    19.34999847   8.52999973  58.73000336
C    18.04999924   8.34999943  58.29000092
C    17.70000076   7.81000042  57.01000214
C    18.72999954   7.62000036  56.11000061
C    20.06999969   7.92999983  56.46999741
C    21.17000198   7.78999996  55.58000183
C    22.50000000   7.97999954  55.86000061
C    22.78000069   8.38999939  57.18999863
C    21.77999878   8.52000046  58.11999893
C    20.39999962   8.36999989  57.80000305
C    16.26000023   7.64999962  56.81000137
C    15.60999966   7.82000017  58.06000137
C    14.23999977   7.99000025  58.18000031
C    24.21999931   8.73000050  57.51999664
H    24.73762703   8.01383114  58.15816879
H    19.55000114   8.93999958  59.71000290
H    18.53000069   7.34000015  55.07999802
H    20.89999962   7.44999981  54.58000183
H    23.29999924   7.99000025  55.12000275
H    22.11999893   8.78000069  59.12000275
H    13.67000008   8.30999947  59.03999710
H    24.79000092   8.88000011  56.59999847
H    24.11000061   9.64999962  58.11000061
S    13.01000023   7.16000032  54.47999954
C    10.34999943   6.94000006  55.15999603
C    11.63000011   7.25000000  55.58000183
C    12.02000046   7.59000015  56.90999985
C    11.03999996   7.69000006  57.88000107
C     9.70000076   7.51999950  57.49000168
C     8.67999935   7.44000006  58.47999954
C     7.42000008   6.97000027  58.16999817
C     7.07999992   6.48000002  56.86999893
C     8.05999947   6.52999973  55.90999985
C     9.36999989   7.03000021  56.17000198
C    13.47000027   7.64999962  57.05999756
C    14.14000034   7.44999981  55.81999969
C    15.51000023   7.39000034  55.65999985
C     5.65999985   6.15999985  56.46999741
H     5.33343554   6.67824316  55.56839752
H    10.19000053   6.56000042  54.15999985
H    11.42000008   7.68000031  58.89999771
H     8.94999981   7.69999981  59.50000000
H     6.63000011   7.02000046  58.89999771
H     7.88999987   6.28000021  54.86999893
H    16.00000000   7.22000027  54.69999695
H     5.00000000   6.32000017  57.32999802
H     5.52999973   5.07999992  56.32999802
S    13.45999908   5.15999985  51.46999741
C    10.72999954   4.39000034  51.88000107
C    12.06999969   4.32999992  52.19999695
C    12.53999901   3.68000007  53.39000320
C    11.57999992   3.09999990  54.20000076
C    10.18000031   3.08999991  53.94000244
C     9.19999981   2.57999992  54.84000397
C     7.86999989   2.70000005  54.54000092
C     7.44999981   3.30999994  53.31999969
C     8.38999939   3.81000018  52.44999695
C     9.78999996   3.74000025  52.71999741
C    13.90999985   3.95000005  53.79000092
C    14.53999996   4.76999998  52.81999969
C    15.88999939   5.10999966  52.88000107
C     5.98999977   3.65999985  53.15999985
H     5.53564119   3.38312483  52.20868683
H    10.53999996   5.03999996  51.03000259
H    11.92000008   2.56999993  55.07999802
H     9.52999973   2.19000006  55.79999924
H     7.14999962   2.38000011  55.27999878
H     7.96999979   4.21999979  51.53999710
H    16.34000015   5.78999996  52.15999985
H     5.42999983   3.23000002  54.00000000
H     6.11000013   4.73000002  53.36999893
S    17.11000061   3.25999999  56.18999863
C    19.82999992   3.82999992  55.65000153
C    18.50000000   3.94000006  55.31999969
C    18.11000061   4.69999981  54.16999817
C    19.04000092   5.38999987  53.40999985
C    20.40999985   5.07999992  53.60000229
C    21.40999985   5.50000000  52.68000031
C    22.72999954   5.15999985  52.84999847
C    23.09000015   4.38000011  53.97999573
C    22.18000031   3.98000002  54.93000031
C    20.81000137   4.30999994  54.73999786
C    16.69000053   4.53999996  53.88000107
C    16.04999924   3.70000005  54.82999802
C    14.68000031   3.45000005  54.84000397
C    24.56000137   4.13999987  54.23999786
H    24.90842438   4.50264454  55.20705032
H    20.20999908   3.24000001  56.47999573
H    18.76000023   5.80999947  52.44999695
H    21.15999985   6.23000050  51.90999985
H    23.51000023   5.61999989  52.25999832
H    22.39999962   3.44000006  55.84000015
H    14.23999977   2.80999994  55.59999847
H    25.17999840   4.46999979  53.39000320
H    24.61000061   3.03999996  54.19000244
