96

S    17.12000084   9.38000011  59.52000046
C    19.85000038   9.19000053  58.94000244
C    18.54999924   8.97000027  58.54999924
C    18.12999916   8.40999985  57.29999924
C    19.07999992   8.14999962  56.32999802
C    20.43999863   8.31999969  56.70999908
C    21.54000092   7.95000029  55.89000320
C    22.86000061   8.21000004  56.19999695
C    23.19000053   8.82000065  57.43999863
C    22.20000076   9.04999924  58.36999893
C    20.84000015   8.84000015  57.98999786
C    16.69999886   8.21000004  57.15999985
C    16.02000046   8.78999996  58.26000214
C    14.65000057   8.63000011  58.41999817
C    24.60000038   9.26000023  57.74000168
H    25.02786255   8.61820602  58.51015472
H    20.06000137   9.70000076  59.86999893
H    18.81000137   7.69999981  55.38000107
H    21.40999985   7.73000002  54.84000397
H    23.51000023   7.97999954  55.37000275
H    22.42000198   9.47000027  59.34999847
H    14.17000008   8.78999996  59.38000107
H    25.15999985   9.17000008  56.79999924
H    24.68000031  10.34000015  57.93000031
S    13.48000050   7.13999987  54.86999893
C    10.80999947   7.07000017  55.52999878
C    12.06999969   7.49000025  55.90000153
C    12.43000031   8.14999962  57.11999893
C    11.44999981   8.36000061  58.06999969
C    10.14999962   7.95000029  57.70999908
C     9.06000042   8.23999977  58.57999802
C     7.73000002   8.01999950  58.29000092
C     7.40000010   7.42000008  57.04999924
C     8.40999985   7.09999990  56.17000198
C     9.77999973   7.31999969  56.46999741
C    13.86999989   8.23999977  57.31999969
C    14.52999973   7.78999996  56.14999771
C    15.92000008   7.63999987  56.14999771
C     6.00000000   6.97000027  56.70000076
H     5.48215294   7.61553526  55.99061966
H    10.62999916   6.51999998  54.61000061
H    11.71000004   8.80000019  59.02999878
H     9.25000000   8.51000023  59.61999893
H     6.98000002   8.14999962  59.06999969
H     8.31999969   6.65000010  55.19000244
H    16.45000076   7.07000017  55.38999939
H     5.49000025   6.97000027  57.67000198
H     5.92999983   5.93999958  56.32999802
S    13.76000023   5.21000004  51.76000214
C    11.10000038   4.65999985  52.39999771
C    12.43000031   4.61000013  52.77000046
C    12.86999893   3.88000011  53.92000198
C    11.87999916   3.28999996  54.68000031
C    10.48999977   3.50000000  54.45999908
C     9.44000053   3.17000008  55.35999680
C     8.14000034   3.53999996  55.10000229
C     7.75000000   3.89999986  53.77999878
C     8.71999931   4.17000008  52.84999847
C    10.08999920   4.07000017  53.20999908
C    14.30999947   4.00999975  54.05000305
C    14.94999981   4.61999989  52.93000031
C    16.23999977   5.13000011  53.02999878
C     6.28000021   4.17000008  53.52000427
H     5.97465754   3.65162778  52.61107254
H    10.78999996   5.23999977  51.53999710
H    12.06999969   2.63000011  55.52999878
H     9.86999989   2.79000020  56.29000092
H     7.44999981   3.45000005  55.91999817
H     8.50000000   4.59000015  51.86999893
H    16.63999939   5.78999996  52.27000427
H     5.66999960   3.82999992  54.36999893
H     6.17999983   5.26000023  53.55999756
S    17.68000031   3.56999993  56.31999969
C    20.29000092   4.19000006  55.70000076
C    18.96000099   4.33999968  55.35999680
C    18.46999931   5.05999994  54.22999954
C    19.43000031   5.55999994  53.36999893
C    20.81000137   5.51999998  53.68999863
C    21.84000015   6.12999964  52.90999985
C    23.16999817   5.86000013  53.09000015
C    23.59000015   5.13999987  54.25000000
C    22.63999939   4.55999994  55.06000137
C    21.25000000   4.77999973  54.84000397
C    17.02999878   4.86999989  54.15999985
C    16.44000053   4.05999994  55.14999771
C    15.11000061   3.63000011  55.13000107
C    25.05000114   4.85000038  54.47999954
H    25.39689064   5.22520924  55.44280243
H    20.59999847   3.45999980  56.44000244
H    19.18000031   6.09000015  52.45999908
H    21.53000069   6.76000023  52.08000183
H    23.87000084   6.10000038  52.29999924
H    22.98000145   3.88000011  55.84000015
H    14.77000046   3.08999991  56.00999832
H    25.62999916   5.36999989  53.70999908
H    25.13999939   3.75999975  54.54000092
