96

S    16.82999992   8.97000027  59.31999969
C    19.54000092   9.17000008  58.68000031
C    18.26000023   8.85999966  58.27999878
C    17.89999962   8.47999954  56.95000076
C    18.95000076   8.25000000  56.07999802
C    20.28000069   8.51000023  56.46999741
C    21.35999870   8.23999977  55.58000183
C    22.67999840   8.42000008  55.91999817
C    22.96999931   9.15000057  57.09999847
C    21.97000122   9.38000011  58.02000046
C    20.62000084   9.00000000  57.77999878
C    16.48999977   8.10999966  56.83000183
C    15.77000046   8.38000011  58.02000046
C    14.39000034   8.39999962  58.13000107
C    24.40000153   9.47000027  57.43999863
H    24.86168480   8.86626053  58.22130966
H    19.70000076   9.72000027  59.59999847
H    18.73999977   7.69999981  55.15999603
H    21.09000015   8.06999969  54.54000092
H    23.47999954   8.00000000  55.31000137
H    22.19000053   9.77000046  59.01000214
H    13.89999962   8.63000011  59.06999969
H    24.94999886   9.42000008  56.49000168
H    24.47999954  10.47000027  57.88000107
S    13.27999973   7.50000000  54.40000153
C    10.59999943   7.37999964  55.05000305
C    11.87000084   7.72000027  55.45999908
C    12.25000000   8.05999947  56.79999924
C    11.25000000   8.05999947  57.76000214
C     9.90999985   7.88999987  57.36000061
C     8.85000038   8.00000000  58.29999924
C     7.57000017   7.55000019  58.02999878
C     7.23999977   7.20000029  56.70000076
C     8.23000050   7.09999990  55.73999786
C     9.57999992   7.46000004  56.03000259
C    13.69999981   8.10999966  56.95000076
C    14.39000034   7.75000000  55.76000214
C    15.77000046   7.69999981  55.70000076
C     5.78999996   6.93000031  56.37000275
H     5.26962376   7.60007334  55.68566895
H    10.36999893   6.93000031  54.09000015
H    11.52999973   8.19999981  58.80000305
H     9.04999924   8.36000061  59.31000137
H     6.81999969   7.55999994  58.81000137
H     7.92000008   6.76000023  54.75999832
H    16.23999977   7.53000021  54.73999786
H     5.32999992   6.94999981  57.36000061
H     5.78000021   5.91000032  55.96000290
S    13.35000038   5.42999983  51.40999603
C    10.72000027   4.77999973  52.04999924
C    12.05999947   4.61999989  52.31999969
C    12.44999981   4.19000006  53.62999725
C    11.51000023   3.84999990  54.58000183
C    10.13000011   4.00999975  54.29999924
C     9.10000038   3.49000001  55.13000107
C     7.76999998   3.55999994  54.78000259
C     7.32999992   4.32999992  53.68000031
C     8.31999969   4.72000027  52.81000137
C     9.71000004   4.46999979  53.00000000
C    13.89999962   4.25000000  53.75000000
C    14.51000023   4.92000008  52.64999771
C    15.85999966   5.23999977  52.63000107
C     5.86999989   4.30000019  53.29000092
H     5.53601837   3.46149302  52.67888641
H    10.47999954   5.23999977  51.10000229
H    11.69999981   3.28000021  55.47999954
H     9.52000046   2.86999989  55.90999985
H     7.11000013   2.79999995  55.20000076
H     8.03999996   5.19000006  51.86999893
H    16.23999977   5.91000032  51.86000061
H     5.23000002   4.42000008  54.16999817
H     5.69000006   5.21000004  52.70000076
S    17.20999908   3.75999975  56.04999924
C    19.88000107   4.34999990  55.38999939
C    18.53999901   4.51000023  55.13999939
C    18.12000084   5.05999994  53.88999939
C    19.07999992   5.59999990  53.06000137
C    20.45999908   5.60999966  53.36999893
C    21.45999908   6.19000006  52.54000092
C    22.79999924   5.98000002  52.74000168
C    23.19999886   5.19999981  53.87000275
C    22.27000046   4.69999981  54.73999786
C    20.86999893   4.94999981  54.58000183
C    16.68000031   4.90000010  53.70999908
C    16.05999947   4.19999981  54.77000427
C    14.70999908   3.88999987  54.82999802
C    24.61000061   4.69000006  54.01000214
H    25.04307938   5.15147781  54.89746094
H    20.05000114   3.82999992  56.33999634
H    18.81000137   5.96000004  52.05999756
H    21.09999847   6.50000000  51.56000137
H    23.48999977   6.11000013  51.90999985
H    22.53000069   3.96000004  55.50000000
H    14.21000004   3.42999983  55.68000031
H    25.22000122   5.07999992  53.18999863
H    24.59000015   3.58999991  53.95999908
