96

S    16.81999969   8.53999996  59.47999954
C    19.55000114   8.47000027  58.87000275
C    18.25000000   8.23999977  58.47000122
C    17.86000061   7.68000031  57.21000290
C    18.86999893   7.31999969  56.33999634
C    20.20999908   7.64999962  56.65999985
C    21.28999901   7.42999983  55.75000000
C    22.59000015   7.81000042  56.00000000
C    22.86999893   8.38000011  57.25999832
C    21.91999817   8.56999969  58.23999786
C    20.56999969   8.25000000  57.90999985
C    16.40999985   7.60999966  57.05999756
C    15.69000053   8.13000011  58.16999817
C    14.30999947   8.31999969  58.13000107
C    24.30000114   8.78999996  57.55000305
H    24.77714729   8.01374531  58.14821625
H    19.64999962   8.73999977  59.92000198
H    18.54999924   6.91999960  55.38000107
H    21.05999947   7.11000013  54.73999786
H    23.36999893   7.76000023  55.25000000
H    22.23999977   8.86999989  59.23999786
H    13.71000099   8.52000046  59.01000214
H    24.82999992   8.85000038  56.59000015
H    24.28999901   9.71000004  58.15000153
S    13.30000019   7.09999990  54.45999908
C    10.55999947   7.03000021  55.00999832
C    11.82999992   7.35000038  55.41999817
C    12.20000076   7.88999987  56.69000244
C    11.13000011   8.11999989  57.54000092
C     9.78999996   7.82000017  57.19999695
C     8.67999935   8.13000011  58.04000092
C     7.39000034   7.81000042  57.69000244
C     7.17000008   6.94999981  56.58000183
C     8.18000031   6.70000029  55.68999863
C     9.51000023   7.13999987  55.96000290
C    13.60999966   8.11999989  56.93999863
C    14.32000065   7.59999990  55.81999969
C    15.65999985   7.25000000  55.93999863
C     5.77000046   6.43000031  56.31999969
H     5.22698307   7.08019161  55.63408279
H    10.32999992   6.60000038  54.03999710
H    11.39999962   8.57999992  58.48999786
H     8.90999985   8.46000004  59.06000137
H     6.57000017   8.06999969  58.34000015
H     8.00000000   6.28000021  54.71000290
H    16.21999931   6.71000004  55.18000031
H     5.26000023   6.30999994  57.29000092
H     5.89999962   5.42000008  55.93000031
S    13.71000099   5.05000019  51.37000275
C    11.06999969   4.36999989  51.84000015
C    12.36999989   4.33999968  52.28000259
C    12.77999973   3.88999987  53.56999969
C    11.77999973   3.49000001  54.43000031
C    10.42000008   3.48000002  54.02999878
C     9.39000034   3.21000004  54.98000336
C     8.07999992   3.25000000  54.56999969
C     7.71000004   3.73000002  53.27999878
C     8.67999935   3.98000002  52.34000397
C    10.03999901   3.95000005  52.72999573
C    14.21000004   4.13000011  53.76999664
C    14.85999966   4.78999996  52.69000244
C    16.21999931   5.05999994  52.70000076
C     6.30000019   4.28000021  53.22000122
H     5.83533764   3.99405384  52.27637863
H    10.92000008   4.99000025  50.96000290
H    11.92000008   3.37000012  55.51000214
H     9.71000004   2.87999988  55.96000290
H     7.28999996   3.01999998  55.27000046
H     8.40999985   4.46000004  51.39999771
H    16.72999954   5.56999969  51.88000107
H     5.71000004   3.88999987  54.06999969
H     6.42000008   5.35000038  53.43000031
S    17.36999893   3.61999989  56.20999908
C    20.13000107   3.84000015  55.52999878
C    18.78999901   4.00000000  55.21999741
C    18.40999985   4.55000019  53.95000076
C    19.40999985   4.99000025  53.09999847
C    20.79000092   4.80999994  53.33000183
C    21.87999916   5.19999981  52.50000000
C    23.15999985   4.79999971  52.78999710
C    23.50000000   4.21000004  54.03999710
C    22.49000168   3.93000007  54.92000198
C    21.12999916   4.23999977  54.61000061
C    16.97000122   4.55999994  53.76999664
C    16.25000000   4.11000013  54.92000198
C    14.89999962   3.81000018  54.93999863
C    24.92000198   3.82999992  54.40000153
H    25.26729584   4.36157322  55.28595734
H    20.36000061   3.19999981  56.38000107
H    19.09000015   5.47999954  52.18999863
H    21.60000038   5.42999983  51.46999741
H    23.92000008   4.81999969  52.01000214
H    22.72000122   3.37000012  55.83000183
H    14.47000027   3.37000012  55.84000015
H    25.52999878   4.03999996  53.52000427
H    24.93999863   2.73999977  54.45999908
