96

S    17.23999977   8.50000000  59.54000092
C    19.85999870   8.67000008  58.82999802
C    18.61999893   8.22000027  58.44999695
C    18.30999947   7.90000010  57.08000183
C    19.32999992   7.76999998  56.16000366
C    20.65999985   8.03999996  56.56999969
C    21.68000031   8.17000008  55.59000015
C    22.95999908   8.52000046  55.93000031
C    23.21000099   8.97999954  57.25000000
C    22.19000053   9.11000061  58.16999817
C    20.90999985   8.56999969  57.88999939
C    16.86000061   7.88000011  56.97000122
C    16.15999985   8.23000050  58.15000153
C    14.78000069   8.17000008  58.22999954
C    24.60000038   9.39000034  57.68000031
H    25.04913139   8.76264286  58.44993973
H    20.05000114   9.09000015  59.80999756
H    19.19000053   7.57999992  55.10000229
H    21.38999939   7.96999979  54.55999756
H    23.78999901   8.55000019  55.21999741
H    22.37999916   9.67000008  59.08000183
H    14.29999924   8.36999989  59.19000244
H    25.12000084   9.46000004  56.72000122
H    24.51999855  10.43000031  58.02000046
S    13.63999939   7.09000015  54.61000061
C    10.93000031   7.18999958  55.11000061
C    12.20000076   7.44000006  55.58000183
C    12.58999920   7.94000053  56.86000061
C    11.56000042   8.26000023  57.72999573
C    10.22999954   8.05999947  57.29999924
C     9.15999985   8.21000004  58.22000122
C     7.86999989   7.79999971  57.95999908
C     7.50999975   7.40999985  56.65000153
C     8.51000023   7.25000000  55.72000122
C     9.88000011   7.48000050  56.03000259
C    14.02999973   7.90999985  57.06999969
C    14.75000000   7.55999994  55.90999985
C    16.13999939   7.53999996  55.81999969
C     6.17000008   6.75000000  56.42000198
H     5.57924795   7.39057398  55.76519012
H    10.80999947   6.69000053  54.15000153
H    11.68000031   8.63000011  58.75000000
H     9.43000031   8.59000015  59.20000076
H     7.22000027   7.72000027  58.81999969
H     8.30000019   6.61000013  54.86000061
H    16.55999947   7.13000011  54.91000366
H     5.63000011   6.58999968  57.36999893
H     6.34999990   5.78000021  55.93000031
S    17.26000023   9.42000008  53.22999954
C    19.98999977   9.32999992  52.77000046
C    18.73999977   8.92000008  52.38999939
C    18.40999985   8.36000061  51.11000061
C    19.40000153   8.21000004  50.15999603
C    20.72999954   8.56999969  50.51000214
C    21.73999977   8.59000015  49.51000214
C    23.00000000   9.06999969  49.77000427
C    23.38000107   9.50000000  51.06999969
C    22.37999916   9.48999977  52.02000046
C    21.02000046   9.11999989  51.81000137
C    16.98999977   8.28999996  50.80999756
C    16.25000000   8.73000050  51.93999863
C    14.86999989   8.89999962  51.84999847
C    24.82999992   9.76000023  51.40999603
H    25.28397369   9.00810623  52.05549240
H    20.06999969   9.92999935  53.67000198
H    19.23999977   7.94000053  49.12000275
H    21.59000015   8.22000027  48.50000000
H    23.69999886   9.06999969  48.94000244
H    22.73999977   9.71000004  53.02000046
H    14.32999992   9.13000011  52.77000046
H    25.45999908   9.81999969  50.52000046
H    24.97999954  10.77000046  51.81000137
S    13.90999985   7.73000002  48.18999863
C    11.11999989   7.83999968  48.75000000
C    12.43000031   8.00000000  49.13999939
C    12.77999973   8.47000027  50.44000244
C    11.73999977   8.61999989  51.33999634
C    10.39999962   8.30000019  50.98999786
C     9.34000015   8.45000076  51.91999817
C     8.05000019   8.10000038  51.59999847
C     7.69999981   7.68000031  50.28999710
C     8.69999981   7.51999950  49.36000061
C    10.05000019   7.79999971  49.68999863
C    14.21000004   8.63000011  50.65000153
C    14.96000099   8.06999969  49.58000183
C    16.34000015   7.88999987  49.64000320
C     6.28999996   7.26999998  49.93000031
H     5.82569647   7.88430977  49.15854263
H    10.88999939   7.49000025  47.75000000
H    12.05000019   8.80000019  52.36000061
H     9.70000076   8.51000023  52.95000076
H     7.26999998   7.83999968  52.30999756
H     8.51000023   7.03000021  48.40000153
H    16.79000092   7.81000042  48.66000366
H     5.65000010   7.40000010  50.80999756
H     6.24000025   6.19999981  49.68999863
