96

S    16.47999954   8.50000000  59.25000000
C    19.15999985   8.60999966  58.59000397
C    17.89999962   8.18000031  58.23999786
C    17.53999901   7.81000042  56.90999985
C    18.52000046   7.68000031  55.93999863
C    19.85999870   7.99000025  56.25000000
C    20.93000031   7.90000010  55.31999969
C    22.18000031   8.27999973  55.72999954
C    22.46000099   8.73000050  57.04999924
C    21.42999840   8.97000027  57.91999817
C    20.13999939   8.45000076  57.58999634
C    16.09000015   7.76000023  56.79000092
C    15.34000015   8.18000031  57.93000031
C    13.96000004   8.27999973  57.95000076
C    23.92000008   9.06000042  57.27000427
H    24.41139221   8.40481186  57.98928452
H    19.13999939   9.30000019  59.43999863
H    18.31999969   7.44999981  54.89999771
H    20.65999985   7.68000031  54.29000092
H    22.98000145   8.32999992  55.00000000
H    21.55999947   9.34000015  58.94000244
H    13.45999908   8.71000004  58.81999969
H    24.44000053   9.13000011  56.31000137
H    23.97999954  10.03000069  57.77999878
S    12.90999985   6.96000004  54.40000153
C    10.19000053   6.90999985  54.99000168
C    11.46000004   7.27999973  55.38000107
C    11.77000046   7.82000017  56.66999817
C    10.71000004   8.02999973  57.52999878
C     9.38000011   7.69999981  57.18000031
C     8.28999996   8.18000031  57.97000122
C     7.02000046   7.72000027  57.75000000
C     6.75000000   6.97000027  56.56999969
C     7.77999973   6.63000011  55.72999954
C     9.13000011   7.03999996  55.93000031
C    13.21000004   7.92000008  56.81999969
C    13.97999954   7.49000025  55.70999908
C    15.36000061   7.40000010  55.65000153
C     5.31000042   6.70000029  56.18999863
H     4.93970013   7.25545073  55.32834244
H     9.90999985   6.56000042  54.00000000
H    10.88999939   8.60000038  58.43999863
H     8.55000019   8.82000065  58.81000137
H     6.24000025   8.27999973  58.26000214
H     7.57999992   6.24000025  54.72999954
H    15.86999989   6.97000027  54.79000092
H     4.69000006   6.88000011  57.08000183
H     5.31000042   5.60999966  56.11000061
S    16.95000076   9.02999973  53.29000092
C    19.56999969   9.35000038  52.49000168
C    18.35000038   8.78999996  52.22000122
C    17.93000031   8.27000046  50.94999695
C    18.96999931   8.01000023  50.06999969
C    20.28000069   8.45000076  50.38000107
C    21.32999802   8.18000031  49.45000076
C    22.63999939   8.53999996  49.66999817
C    22.95000076   9.25000000  50.86000061
C    21.98999786   9.52999973  51.81000137
C    20.62999916   9.19999981  51.56000137
C    16.48999977   8.30000019  50.79999924
C    15.80000019   8.73000050  51.95999908
C    14.42000008   8.84000015  52.04999924
C    24.37000084   9.72999954  51.05999756
H    24.92515373   9.02538300  51.67920685
H    19.71999931   9.92000008  53.40000153
H    18.81000137   7.46000004  49.15000153
H    21.02000046   7.73999977  48.50999832
H    23.35000038   8.32999992  48.88000107
H    22.22999954  10.00000000  52.76000214
H    13.92000008   9.17000008  52.95000076
H    24.84999847   9.81000042  50.07999802
H    24.38999939  10.73999977  51.49000168
S    13.26000023   7.36000013  48.53000259
C    10.54999924   7.44999981  49.19000244
C    11.85999966   7.67000008  49.56999969
C    12.23000050   8.14999962  50.86999893
C    11.23000050   8.38999939  51.77999878
C     9.88000011   8.13000011  51.44000244
C     8.80999947   8.43000031  52.31999969
C     7.51999950   8.17000008  51.90999985
C     7.20000029   7.60999966  50.65000153
C     8.18000031   7.44999981  49.68999863
C     9.52000046   7.63000011  50.13999939
C    13.67000008   8.30000019  51.00000000
C    14.34999943   7.82999992  49.85000229
C    15.73999977   7.82999992  49.71000290
C     5.73000002   7.46000004  50.34000015
H     5.41133881   8.08315945  49.50439835
H    10.36000061   7.17000008  48.15000153
H    11.49000072   8.86999989  52.71999741
H     8.97999954   8.92000008  53.27999878
H     6.65000010   8.38999939  52.51999664
H     7.95000029   7.11999989  48.68000031
H    16.13000107   7.40999985  48.79000092
H     5.18000031   7.59999990  51.27999878
H     5.58000040   6.38000011  50.19000244
