96

S    17.63000107   8.53999996  59.45999908
C    20.31999969   8.36999989  58.74000168
C    19.00000000   8.15999985  58.40999985
C    18.59000015   7.88000011  57.06999969
C    19.56999969   7.78999996  56.10000229
C    20.93000031   8.01999950  56.40999603
C    21.93000031   7.92000008  55.38999939
C    23.21000099   8.34999943  55.63000107
C    23.52999878   9.04999924  56.81999969
C    22.62000084   9.00000000  57.84999847
C    21.31999969   8.42000008  57.72999573
C    17.13999939   7.96999979  56.95000076
C    16.47999954   8.45000076  58.11000061
C    15.10000038   8.56999969  58.13999939
C    24.99000168   9.26999950  57.14000320
H    25.29602814   8.68641376  58.00826263
H    20.55000114   8.78999996  59.71000290
H    19.20999908   7.59000015  55.08999634
H    21.57999992   7.55999994  54.43000031
H    24.03000069   8.01999950  55.00000000
H    22.98999977   9.31999969  58.81999969
H    14.61999989   8.63000011  59.12000275
H    25.55999947   9.01000023  56.24000168
H    25.13000107  10.29999924  57.48000336
S    14.01999950   7.22000027  54.45999908
C    11.31999969   7.03999996  55.20999908
C    12.58999920   7.49000025  55.47999954
C    12.94000053   7.99000025  56.77999878
C    11.94000053   7.96999979  57.72999573
C    10.59000015   7.60999966  57.47000122
C     9.52999973   7.60999966  58.41999817
C     8.23999977   7.30999994  58.04999924
C     7.92000008   6.97000027  56.70999908
C     8.92000008   6.90000010  55.77000046
C    10.26000023   7.22000027  56.12999725
C    14.35999966   8.26000023  56.98999786
C    15.00000000   7.81000042  55.80999756
C    16.39000130   7.69999981  55.79999924
C     6.51000023   6.57000017  56.31999969
H     5.97527456   7.34000444  55.76388550
H    11.09000015   6.58999968  54.25000000
H    12.18999958   8.18000031  58.76999664
H     9.73999977   7.85000038  59.45999908
H     7.44000006   7.37999964  58.77999878
H     8.78000069   6.58999968  54.72999954
H    16.88999939   7.36999989  54.88999939
H     6.00000000   6.24000025  57.22999954
H     6.61999989   5.61999989  55.77999878
S    13.61999989   5.19999981  51.25999832
C    10.95000076   4.71000004  51.93999863
C    12.28999996   4.57999992  52.25000000
C    12.71999931   3.98999977  53.47999954
C    11.77000046   3.53999996  54.38000107
C    10.39000034   3.58999991  54.10999680
C     9.44000053   3.02999997  55.00999832
C     8.10999966   3.07999992  54.66999817
C     7.71000004   3.74000025  53.47999954
C     8.60999966   4.21999979  52.56000137
C    10.01000023   4.15000010  52.84000015
C    14.17000008   4.02999973  53.56999969
C    14.78000069   4.77999973  52.52999878
C    16.10999870   5.19000006  52.61000061
C     6.24000025   3.89999986  53.15999985
H     5.96317768   3.08372903  52.49278641
H    10.60999966   5.17000008  51.02000427
H    12.13000107   3.05000019  55.27999878
H     9.68999958   2.44000006  55.89000320
H     7.36999989   2.56999993  55.27999878
H     8.23000050   4.76000023  51.69000244
H    16.54000092   5.84000015  51.86000061
H     5.59999990   3.96000004  54.03999710
H     6.24000025   4.85000038  52.62000275
S    17.34000015   3.25999999  55.90000153
C    20.00999832   4.00000000  55.45000076
C    18.70000076   3.98999977  55.01999664
C    18.30000114   4.55999994  53.76999664
C    19.22000122   5.21000004  52.97000122
C    20.58000183   5.18000031  53.37999725
C    21.54000092   5.64000034  52.43999863
C    22.88000107   5.44000053  52.69000244
C    23.29000092   4.90999985  53.94000244
C    22.39999962   4.42999983  54.86999893
C    21.01000023   4.55999994  54.61000061
C    16.86000061   4.55000019  53.61000061
C    16.21999931   3.82999992  54.65000153
C    14.88000011   3.44000006  54.61999893
C    24.76000023   4.56999969  54.09000015
H    25.27818680   5.11658049  54.87792969
H    20.22999954   3.48000002  56.37000275
H    18.89999962   5.69999981  52.04999924
H    21.21999931   6.02999973  51.46999741
H    23.55999947   5.63000011  51.86999893
H    22.79999924   3.89999986  55.72999954
H    14.42999935   2.79999995  55.38000107
H    25.25000000   4.67999983  53.11000061
H    24.72999954   3.51000023  54.36000061
