96

S    16.82999992   8.78000069  59.19000244
C    19.55000114   8.61999989  58.54000092
C    18.23999977   8.47000027  58.15999985
C    17.88999939   7.96000004  56.86000061
C    18.89000130   7.81000042  55.91999817
C    20.26000023   8.00000000  56.23000336
C    21.31999969   8.06999969  55.27999878
C    22.62000084   8.27000046  55.68999863
C    22.90999985   8.38000011  57.06999969
C    21.91999817   8.56000042  58.01000214
C    20.56999969   8.42000008  57.56999969
C    16.45000076   7.86000013  56.70999908
C    15.76000023   8.34999943  57.84999847
C    14.40000057   8.63000011  57.80000305
C    24.34999847   8.61999989  57.44999695
H    24.69762421   8.21562099  58.40064621
H    19.67000008   8.93000031  59.56999969
H    18.56999969   7.69000006  54.88999939
H    21.02999878   8.10999966  54.23999786
H    23.46999931   8.43999958  55.02999878
H    22.11999893   8.76000023  59.06000137
H    13.86000061   9.06000042  58.63999939
H    24.99000168   8.22000027  56.65999985
H    24.41999817   9.71000004  57.35000229
S    13.23999977   7.05999947  54.33000183
C    10.57000065   6.97000027  54.99000168
C    11.82999992   7.40000010  55.34999847
C    12.23000050   8.07999992  56.53999710
C    11.19999981   8.34000015  57.43000031
C     9.92999935   7.78999996  57.16999817
C     8.97999954   8.01999950  58.20000076
C     7.65999985   7.69000006  57.95999908
C     7.26000023   7.17000008  56.70000076
C     8.15999985   6.84999990  55.70999908
C     9.52999973   7.17000008  55.93000031
C    13.67000008   8.23000050  56.66999817
C    14.35999966   7.63999987  55.58000183
C    15.73999977   7.46999979  55.56000137
C     5.79999971   6.90000010  56.39999771
H     5.43620729   7.68465090  55.73661423
H    10.26999950   6.54999971  54.03999710
H    11.35000038   8.85999966  58.37999725
H     9.26999950   8.63000011  59.05000305
H     7.00000000   7.86999989  58.80000305
H     7.79999971   6.52999973  54.73999786
H    16.22999954   7.11000013  54.65999985
H     5.21000004   6.83000040  57.31999969
H     5.75999975   5.93999958  55.86999893
S    13.57999992   5.15999985  51.46999741
C    10.90999985   4.59000015  52.06999969
C    12.25000000   4.42000008  52.37999725
C    12.69999981   3.77999997  53.56999969
C    11.73999977   3.31999993  54.45000076
C    10.36000061   3.51000023  54.20000076
C     9.38000011   3.12999988  55.14999771
C     8.02999973   3.31999993  54.93000031
C     7.62000036   4.07000017  53.80000305
C     8.53999996   4.42999983  52.84000015
C     9.92000008   4.11000013  52.95999908
C    14.14999962   3.81999993  53.62999725
C    14.80000019   4.48999977  52.56000137
C    16.10999870   4.96000004  52.57999802
C     6.15000010   4.32000017  53.56999969
H     5.83701038   3.96432996  52.58834839
H    10.55999947   5.05000019  51.14999771
H    12.03999996   2.91000009  55.40999985
H     9.65999985   2.75000000  56.12999725
H     7.23999977   2.96000004  55.59000015
H     8.22000027   5.01999950  51.98999786
H    16.46000099   5.69999981  51.86999893
H     5.42000008   3.91000009  54.27999878
H     6.01999998   5.40999985  53.61999893
S    17.42000008   3.38999987  56.02000427
C    20.03999901   4.09000015  55.47999954
C    18.71999931   4.17000008  55.11000061
C    18.32999992   4.80999994  53.88999939
C    19.27999878   5.44000053  53.11999893
C    20.65000153   5.40000010  53.47000122
C    21.68999863   5.92999983  52.65999603
C    23.01000214   5.69999981  52.94000244
C    23.36000061   4.85000038  54.02000046
C    22.40999985   4.42999983  54.93000031
C    21.04000092   4.69999981  54.66999817
C    16.92000008   4.51999998  53.63999939
C    16.32999992   3.75000000  54.66999817
C    14.98000050   3.38000011  54.66999817
C    24.80999947   4.44999981  54.20000076
H    25.20834160   4.75586987  55.16740417
H    20.38999939   3.42999983  56.26999664
H    18.96000099   5.86000013  52.16999817
H    21.44000053   6.57000017  51.81999969
H    23.77000046   6.00000000  52.22000122
H    22.60999870   3.65999985  55.65999985
H    14.68000031   2.91000009  55.59999847
H    25.31999969   4.88999987  53.34000015
H    24.87999916   3.35000014  54.19000244
