96

S    17.15999985   8.59000015  59.50000000
C    19.84000015   8.82000065  58.75999832
C    18.56999969   8.39999962  58.43999863
C    18.15000153   7.95000029  57.15000153
C    19.17000008   7.90999985  56.20999908
C    20.51000214   8.28999996  56.45999908
C    21.59000015   8.15999985  55.54000092
C    22.86999893   8.53999996  55.84999847
C    23.19999886   9.02999973  57.14000320
C    22.18000031   9.19999981  58.06000137
C    20.86000061   8.75000000  57.77999878
C    16.70999908   7.79999971  57.04999924
C    16.01000023   8.28999996  58.18000031
C    14.61999989   8.38999939  58.22000122
C    24.61000061   9.40999985  57.50000000
H    25.03066826   8.78969288  58.29142761
H    20.10999870   9.10000038  59.77000427
H    18.96000099   7.67000008  55.17000198
H    21.37000084   7.76999998  54.54999924
H    23.64999962   8.40999985  55.10000229
H    22.44999886   9.48000050  59.06999969
H    14.14000034   8.78999996  59.10999680
H    25.32999992   9.35000038  56.65999985
H    24.47000122  10.43000031  57.87000275
S    13.56999969   7.32999992  54.54000092
C    10.85000038   7.27999973  55.06999969
C    12.10999966   7.55999994  55.52999878
C    12.43000031   8.00000000  56.86000061
C    11.36000061   8.25000000  57.70000076
C    10.03999901   7.99000025  57.27000427
C     8.88000011   8.06999969  58.11000061
C     7.60999966   7.77999973  57.70000076
C     7.35000038   7.36999989  56.36000061
C     8.40999985   7.44999981  55.47999954
C     9.75000000   7.57999992  55.91999817
C    13.86999989   8.05000019  57.09000015
C    14.60000038   7.59000015  55.96000290
C    15.98000050   7.48000050  55.89000320
C     6.05999994   6.76999998  55.84999847
H     5.47224665   7.49229956  55.28349304
H    10.57000065   6.83000040  54.13000107
H    11.59000015   8.51000023  58.73000336
H     9.02000046   8.30999947  59.15999985
H     6.84999990   7.71000004  58.47000122
H     8.17000008   7.11999989  54.47000122
H    16.48999977   7.17999983  54.98000336
H     5.42999983   6.39999962  56.66999817
H     6.21000004   5.86000013  55.26000214
S    13.47000027   5.09999990  51.70000076
C    10.81999969   4.75000000  52.38999939
C    12.13000107   4.56999969  52.75000000
C    12.61999989   4.00999975  53.96999741
C    11.67000008   3.52999973  54.86000061
C    10.29999924   3.71000004  54.59000015
C     9.39000034   2.99000001  55.40999985
C     8.02999973   2.96999979  55.18000031
C     7.62000036   3.51999998  53.94000244
C     8.47000027   4.15000010  53.06999969
C     9.86999989   4.25000000  53.31999969
C    14.06999969   4.09999990  54.08000183
C    14.68000031   4.65000010  52.91999817
C    16.03000069   4.94999981  52.88000107
C     6.17999983   3.21000004  53.57999802
H     5.84601831   3.82111549  52.74148941
H    10.48999977   5.09999990  51.42000198
H    12.02999973   2.92000008  55.68999863
H     9.81999969   2.44000006  56.25000000
H     7.42000008   2.43000007  55.90000153
H     8.19999981   4.53000021  52.09000015
H    16.45000076   5.36999989  51.97000122
H     6.03999996   2.16999984  53.26000214
H     5.55000019   3.48000002  54.43000031
S    17.43000031   3.42000008  56.27999878
C    20.06999969   3.98000002  55.68999863
C    18.75000000   4.11000013  55.33000183
C    18.23999977   4.77999973  54.16999817
C    19.11000061   5.32000017  53.23999786
C    20.48999977   5.21000004  53.54000092
C    21.53000069   5.55999994  52.63999939
C    22.85000038   5.19999981  52.78999710
C    23.29999924   4.69999981  54.03999710
C    22.34000015   4.39000034  54.98000336
C    20.95000076   4.59000015  54.75999832
C    16.79999924   4.69000006  54.02000046
C    16.21999931   4.05999994  55.14999771
C    14.88999939   3.63999987  55.11000061
C    24.76000023   4.39000034  54.31000137
H    25.09574890   4.73289251  55.28867340
H    20.38000107   3.28999996  56.46999741
H    18.86000061   5.51000023  52.19999695
H    21.21000099   6.01999998  51.70999908
H    23.68000031   5.36999989  52.11000061
H    22.47999954   3.61000013  55.72000122
H    14.53999996   3.07999992  55.97000122
H    25.27000046   4.90000010  53.48999786
H    24.77000046   3.28999996  54.23999786
