96

S    16.73999977   8.85999966  59.31000137
C    19.43000031   9.06000042  58.62999725
C    18.17000008   8.61999989  58.27999878
C    17.81999969   8.06999969  57.01000214
C    18.84000015   7.83999968  56.11000061
C    20.13999939   8.31999969  56.38999939
C    21.18000031   8.15999985  55.43000031
C    22.46000099   8.57999992  55.70999908
C    22.78000069   9.07999992  57.00000000
C    21.80999947   9.19999981  57.97000122
C    20.45999908   8.85999966  57.68000031
C    16.36999893   8.01999950  56.86000061
C    15.62999916   8.43000031  58.00000000
C    14.23999977   8.52000046  57.98999786
C    24.20999908   9.46000004  57.32999802
H    24.81451035   8.63502121  57.70692825
H    19.55000114   9.63999939  59.54999924
H    18.67000008   7.32999992  55.17000198
H    20.92000008   7.69000006  54.47999954
H    23.18000031   8.45000076  54.92000198
H    22.04999924   9.30999947  59.02000046
H    13.61999989   8.52999973  58.88999939
H    24.70999908   9.90999985  56.46999741
H    24.07999992  10.19999981  58.13999939
S    13.27999973   7.35000038  54.31999969
C    10.62000084   7.04999971  55.00999832
C    11.85999966   7.50999975  55.38000107
C    12.13000107   8.07999992  56.65999985
C    11.07999992   8.09000015  57.56999969
C     9.76000023   7.79999971  57.16999817
C     8.69999981   7.96000004  58.11000061
C     7.40000010   7.76999998  57.70999908
C     7.11999989   7.25000000  56.42000198
C     8.14000034   7.00000000  55.54000092
C     9.51000023   7.26000023  55.86000061
C    13.55000019   8.34999943  56.77999878
C    14.28999996   7.99000025  55.61999893
C    15.67999935   7.88999987  55.65000153
C     5.69000006   6.98999977  56.00999832
H     5.24107027   7.66695738  55.28316116
H    10.44000053   6.67000008  54.00000000
H    11.30000019   8.21000004  58.62999725
H     8.89999962   8.40999985  59.08000183
H     6.63999987   7.88999987  58.47999954
H     7.86000013   6.48999977  54.61999893
H    16.27000046   7.73999977  54.75000000
H     5.09999990   6.88000011  56.93000031
H     5.68000031   6.01000023  55.51000214
S    17.75000000   9.21000004  53.23999786
C    20.38999939   9.61999989  52.32999802
C    19.11000061   9.18000031  52.09999847
C    18.73999977   8.64000034  50.83000183
C    19.72999954   8.40999985  49.89999771
C    21.07999992   8.76000023  50.12000275
C    22.09000015   8.60000038  49.12000275
C    23.39999962   8.92000008  49.38000107
C    23.75000000   9.44999981  50.65000153
C    22.78000069   9.68999958  51.59999847
C    21.42000008   9.35000038  51.38999939
C    17.29999924   8.43000031  50.77000046
C    16.60000038   8.82999992  51.93999863
C    15.21999931   9.00000000  51.90000153
C    25.17999840   9.77999973  51.00000000
H    25.57141113   9.08969021  51.74724197
H    20.75000000  10.14000034  53.22000122
H    19.45999908   7.86999989  49.00000000
H    21.77000046   8.22000027  48.15999985
H    24.20999908   8.63000011  48.70999908
H    23.05999947  10.17000008  52.54000092
H    14.72000027   9.48999977  52.72999573
H    25.86000061   9.63999939  50.14999771
H    25.09000015  10.77999973  51.42000198
S    14.09999943   7.76999998  48.31999969
C    11.35000038   7.90000010  48.89999771
C    12.64999962   8.23999977  49.22000122
C    13.07999992   8.64999962  50.52999878
C    12.10000038   8.96000004  51.45000076
C    10.77000046   8.52999973  51.24000168
C     9.68999958   8.63000011  52.15999985
C     8.39999962   8.23000050  51.90000153
C     8.18000031   7.49000025  50.70999908
C     9.15999985   7.30999994  49.77000427
C    10.44999981   7.88000011  49.99000168
C    14.50000000   8.48999977  50.80999756
C    15.21000004   8.01999950  49.68000031
C    16.60000038   7.92000008  49.66999817
C     6.76999998   7.02000046  50.40000153
H     6.39258814   7.63240480  49.58108521
H    11.02000046   7.39000034  48.00000000
H    12.48000050   9.39999962  52.36000061
H     9.84000015   9.11999989  53.11999893
H     7.67000008   8.32999992  52.70000076
H     8.97000027   6.91999960  48.76999664
H    17.05999947   7.69000006  48.70999908
H     6.21999979   7.17000008  51.32999802
H     6.84999990   5.95000029  50.19000244
