96

S    16.90000153   8.60999966  59.34000015
C    19.61000061   8.80000019  58.73000336
C    18.35000038   8.39999962  58.34000015
C    18.02999878   7.92999983  57.02999878
C    19.05999947   7.85000038  56.11000061
C    20.38000107   8.22000027  56.46999741
C    21.48999977   8.15999985  55.58000183
C    22.70999908   8.67999935  55.90000153
C    22.93000031   9.19000053  57.21000290
C    21.94000053   9.22999954  58.15999985
C    20.63999939   8.80999947  57.76000214
C    16.57999992   7.92000008  56.83000183
C    15.82999992   8.34999943  57.95000076
C    14.44000053   8.46000004  58.00000000
C    24.27999878   9.76000023  57.58999634
H    24.74365616   9.11801529  58.33898163
H    19.78000069   9.10000038  59.75999832
H    18.79999924   7.31999969  55.20000076
H    21.35000038   7.83999968  54.54999924
H    23.52000046   8.75000000  55.18000031
H    22.07999992   9.78999996  59.08000183
H    13.89999962   8.51000023  58.94000244
H    24.89000130   9.70000076  56.68000031
H    24.26000214  10.80999947  57.90999985
S    13.34000015   7.53999996  54.34000015
C    10.67000008   7.32999992  55.06999969
C    11.94000053   7.71000004  55.41999817
C    12.30999947   8.22000027  56.70999908
C    11.31999969   8.38999939  57.65999603
C    10.01000023   8.01000023  57.29000092
C     8.96000004   8.09000015  58.26000214
C     7.69000006   7.63000011  58.04000092
C     7.34000015   7.05999947  56.77999878
C     8.28999996   7.02000046  55.77999878
C     9.61999989   7.46999979  56.02000427
C    13.76000023   8.30000019  56.79000092
C    14.48999977   7.92999983  55.63999939
C    15.86999989   7.73000002  55.63999939
C     5.91000032   6.70000029  56.46999741
H     5.46218920   7.30418921  55.68099594
H    10.43000031   6.84000015  54.13000107
H    11.49000072   8.71999931  58.68000031
H     9.32999992   8.38000011  59.23999786
H     6.88000011   7.71000004  58.75999832
H     8.05999947   6.67000008  54.78000259
H    16.38000107   7.40999985  54.75000000
H     5.42000008   6.89000034  57.43000031
H     5.80999947   5.63000011  56.24000168
S    17.54999924   9.48999977  53.06000137
C    20.25000000   9.44999981  52.48000336
C    18.97999954   9.13000011  52.06999969
C    18.60999870   8.67000008  50.77000046
C    19.63000107   8.47000027  49.86000061
C    20.95000076   8.78999996  50.24000168
C    22.04000092   8.80000019  49.31000137
C    23.26999855   9.30000019  49.64000320
C    23.59999847   9.61000061  50.97999954
C    22.60999870   9.64999962  51.93999863
C    21.31000137   9.22000027  51.56999969
C    17.17000008   8.57999992  50.56999969
C    16.46999931   8.98999977  51.73999786
C    15.10000038   9.11000061  51.88000107
C    24.96999931  10.08999920  51.40999603
H    25.36922646   9.34144878  52.09438705
H    20.27000046  10.06999969  53.36999893
H    19.42000008   8.07999992  48.86000061
H    21.77000046   8.40999985  48.34000015
H    23.97999954   9.38000011  48.81000137
H    22.95999908  10.19000053  52.81999969
H    14.63000107   9.56999969  52.75000000
H    25.59999847  10.24000072  50.52000046
H    24.89000130  11.07999992  51.88000107
S    14.01999950   7.53999996  48.36000061
C    11.26999950   7.76000023  48.85000229
C    12.56000042   8.05999947  49.22999954
C    12.94000053   8.53999996  50.52000046
C    11.94000053   8.90999985  51.40999603
C    10.62000084   8.55000019  51.04999924
C     9.63999939   8.63000011  52.06999969
C     8.39999962   8.07999992  51.90000153
C     8.00000000   7.51999950  50.65000153
C     8.89999962   7.46999979  49.61000061
C    10.22999954   7.92000008  49.80999756
C    14.37000084   8.64000034  50.77999878
C    15.06999969   8.10999966  49.66999817
C    16.45000076   7.97999954  49.52999878
C     6.52999973   7.21000004  50.45999908
H     6.06167030   7.93378210  49.79298401
H    11.10999966   7.32999992  47.87000275
H    12.10000038   9.25000000  52.43000031
H     9.90999985   9.06000042  53.04000092
H     7.60999966   8.19000053  52.63999939
H     8.65999985   7.05999947  48.63999939
H    16.95999908   7.50000000  48.69999695
H     6.06999969   7.27999973  51.45000076
H     6.47000027   6.15000010  50.20000076
