96

S    16.92000008   8.85999966  59.29999924
C    19.64999962   8.60000038  58.69999695
C    18.34000015   8.43999958  58.31999969
C    18.00000000   7.96999979  57.02000046
C    18.97999954   7.67000008  56.09000397
C    20.32999992   7.88000011  56.46999741
C    21.38000107   7.86999989  55.51000214
C    22.67999840   8.19999981  55.80999756
C    23.01000214   8.64999962  57.11999893
C    22.04000092   8.64999962  58.09000015
C    20.69999886   8.27000046  57.81000137
C    16.54999924   7.88000011  56.86999893
C    15.81999969   8.39999962  57.97999954
C    14.44000053   8.52999973  57.95999908
C    24.33000183   9.26999950  57.50999832
H    24.79963493   8.80748177  58.37811279
H    19.96999931   8.85999966  59.71000290
H    18.71999931   7.50000000  55.05000305
H    21.09999847   7.46000004  54.54000092
H    23.39999962   8.30999947  55.00000000
H    22.15999985   9.11000061  59.06999969
H    13.81999969   8.80999947  58.81000137
H    24.93000031   9.27999973  56.59000015
H    24.27000046  10.34000015  57.74000168
S    13.36999989   7.16000032  54.43000031
C    10.65000057   7.17000008  55.00999832
C    11.92000008   7.59000015  55.34999847
C    12.28000069   8.10999966  56.63000107
C    11.28000069   8.23999977  57.57999802
C     9.94000053   7.90999985  57.23999786
C     8.85999966   7.83999968  58.15999985
C     7.57999992   7.46000004  57.81999969
C     7.31999969   7.09000015  56.47999573
C     8.31999969   7.00000000  55.54000092
C     9.59999943   7.50999975  55.90999985
C    13.73000050   8.23999977  56.79999924
C    14.47000027   7.72000027  55.70999908
C    15.85999966   7.63999987  55.68000031
C     5.88999987   6.84999990  56.03000259
H     5.52843094   7.55186892  55.27850723
H    10.47000027   6.48999977  54.18000031
H    11.54999924   8.57999992  58.56999969
H     9.02000046   8.10000038  59.20999908
H     6.71999979   7.39000034  58.47000122
H     8.07999992   6.61999989  54.54999924
H    16.44000053   7.39000034  54.79999924
H     5.21000004   6.96000004  56.88000107
H     5.77000046   5.82000017  55.70000076
S    17.64999962   9.01000023  53.29000092
C    20.38999939   9.13999939  52.52999878
C    19.07999992   8.80000019  52.27000427
C    18.71000099   8.34000015  50.97000122
C    19.63999939   8.27999973  49.93999863
C    20.98999977   8.63000011  50.15999603
C    21.94000053   8.75000000  49.09999847
C    23.23999786   9.11000061  49.38000107
C    23.59000015   9.51000023  50.70000076
C    22.67000008   9.52999973  51.70999908
C    21.34000015   9.06999969  51.47999573
C    17.28000069   8.13000011  50.84999847
C    16.54000092   8.48999977  52.01000214
C    15.19999981   8.82999992  51.97000122
C    24.93999863  10.14000034  50.97999954
H    25.38778114   9.60692596  51.81870270
H    20.66999817   9.77000046  53.37999725
H    19.34000015   7.99000025  48.94000244
H    21.61999893   8.45000076  48.11000061
H    23.94000053   9.22999954  48.56999969
H    22.96999931  10.05000019  52.62000275
H    14.77000046   9.17000008  52.90999985
H    25.55999947   9.96999931  50.08999634
H    24.79000092  11.21999931  51.07999802
S    14.21000004   7.79999971  48.23999786
C    11.49000072   7.65999985  48.88000107
C    12.76000023   8.05999947  49.22999954
C    13.03999996   8.40999985  50.59000015
C    11.97999954   8.52000046  51.47999573
C    10.62000084   8.38000011  51.11000061
C     9.50000000   8.59000015  51.95999908
C     8.19999981   8.34000015  51.58000183
C     8.01000023   7.65999985  50.34999847
C     9.07999992   7.44000006  49.52000046
C    10.42000008   7.82000017  49.79999924
C    14.47000027   8.47999954  50.81999969
C    15.21000004   8.10999966  49.66999817
C    16.59000015   7.92000008  49.65000153
C     6.61999989   7.13999987  50.04000092
H     6.07922029   7.78751278  49.34979248
H    11.21000099   7.11999989  47.97999954
H    12.18000031   8.73999977  52.52999878
H     9.72999954   8.78000069  53.01000214
H     7.39000034   8.45000076  52.29000092
H     9.02999973   6.86999989  48.59000397
H    17.12000084   7.86999989  48.69999695
H     6.02999973   7.11000013  50.96000290
H     6.67000008   6.09000015  49.73999786
