96

S    16.93000031   9.02000046  59.25000000
C    19.64999962   8.71999931  58.62999725
C    18.32999992   8.61999989  58.25000000
C    17.97000122   7.96999979  57.02000046
C    18.94000053   7.69999981  56.07999802
C    20.28000069   8.05000019  56.36000061
C    21.32999802   7.85000038  55.41999817
C    22.65999985   8.02999973  55.72000122
C    23.01000214   8.59000015  56.97999954
C    22.04999924   8.73000050  57.95000076
C    20.66999817   8.52000046  57.67000198
C    16.54000092   8.05000019  56.77999878
C    15.85000038   8.45000076  57.95999908
C    14.47999954   8.67000008  58.00000000
C    24.40000153   9.11999989  57.23999786
H    24.96099281   8.56610966  57.99272156
H    19.86999893   8.75000000  59.69999695
H    18.59000015   7.26000023  55.14999771
H    21.07000160   7.40000010  54.45999908
H    23.31999969   7.75000000  54.89999771
H    22.19000053   9.30000019  58.87000275
H    13.94999981   8.93999958  58.90999603
H    24.94999886   9.11000061  56.29000092
H    24.28999901  10.14999962  57.58999634
S    13.42000008   7.39000034  54.33000183
C    10.72000027   7.35000038  54.97000122
C    12.00000000   7.67000008  55.35999680
C    12.32999992   8.21000004  56.65000153
C    11.31000042   8.34999943  57.56999969
C     9.96999931   8.02999973  57.22000122
C     8.82000065   8.21000004  58.04000092
C     7.55999994   7.82000017  57.65999603
C     7.28999996   7.16000032  56.43000031
C     8.36000061   7.11000013  55.54999924
C     9.67000008   7.51999950  55.90999985
C    13.76000023   8.27000046  56.86999893
C    14.46000004   7.85000038  55.70000076
C    15.84000015   7.71000004  55.61999893
C     5.88000011   6.75000000  56.06999969
H     5.45737457   7.41617203  55.31786728
H    10.36000061   6.85999966  54.06999969
H    11.51999950   8.61999989  58.60000229
H     8.90999985   8.69000053  59.01000214
H     6.78999996   7.90999985  58.40999985
H     8.18000031   6.70000029  54.56999969
H    16.38000107   7.25000000  54.79999924
H     5.19999981   6.77999973  56.93000031
H     6.03999996   5.72000027  55.70999908
S    14.22000027   5.32999992  51.52000046
C    11.50000000   4.90999985  52.19999695
C    12.84000015   4.71000004  52.44999695
C    13.21000004   3.98999977  53.62999725
C    12.18999958   3.45000005  54.40000153
C    10.81999969   3.70000005  54.13999939
C     9.85999966   3.17000008  55.04000092
C     8.52999973   3.35000014  54.73999786
C     8.11999989   4.13000011  53.62999725
C     9.03999996   4.63000011  52.74000168
C    10.42000008   4.33999968  52.91999817
C    14.63000107   4.15999985  53.90999603
C    15.29000092   4.79999971  52.84000015
C    16.64999962   5.09000015  52.84000015
C     6.65000010   4.46000004  53.44999695
H     6.28048754   4.21128988  52.45515823
H    11.33999920   5.45000029  51.26999664
H    12.46999931   2.68000007  55.11000061
H    10.24000072   2.73000002  55.96000290
H     7.81000042   3.23000002  55.54999924
H     8.73999977   5.26000023  51.90000153
H    17.27000046   5.46000004  52.02999878
H     6.03999996   3.86000013  54.13999939
H     6.48999977   5.51999998  53.64999771
S    17.92000008   3.58999991  56.32999802
C    20.59000015   3.74000025  55.52999878
C    19.27999878   4.09000015  55.31000137
C    18.81000137   4.69000006  54.09999847
C    19.75000000   5.00999975  53.13000107
C    21.11999893   4.79999971  53.36000061
C    22.14999962   5.35000038  52.55000305
C    23.47999954   5.05999994  52.74000168
C    23.88000107   4.33999968  53.88999939
C    22.93999863   3.88000011  54.78000259
C    21.55999947   4.15999985  54.58000183
C    17.35999870   4.61999989  53.95999908
C    16.72999954   4.05000019  55.08999634
C    15.36999893   3.78999996  55.04000092
C    25.34000015   3.95000005  54.02999878
H    25.71741104   4.38437986  54.95572662
H    20.90999985   3.28999996  56.46999741
H    19.50000000   5.52999973  52.21000290
H    21.94000053   5.82000017  51.59000015
H    24.10000038   5.18000031  51.84999847
H    23.29999924   3.22000003  55.56000137
H    14.78999996   3.24000001  55.77999878
H    25.93000031   4.36999989  53.20999908
H    25.31999969   2.86000013  53.95000076
