96

S    17.35999870   9.31999969  59.13999939
C    20.00999832   9.53999996  58.37999725
C    18.78000069   8.97999954  58.15000153
C    18.44000053   8.38999939  56.88000107
C    19.43000031   8.11999989  55.94999695
C    20.75000000   8.52999973  56.25999832
C    21.81999969   8.26000023  55.35999680
C    23.09999847   8.67000008  55.65999985
C    23.31999969   9.50000000  56.79000092
C    22.32999992   9.85999966  57.68000031
C    21.02999878   9.34000015  57.41000366
C    17.00000000   8.27000046  56.72000122
C    16.28999901   8.67000008  57.88000107
C    14.91000080   8.71000004  57.85999680
C    24.77000046   9.84000015  56.98999786
H    25.07563591   9.21451378  57.82872009
H    20.10000038  10.08999920  59.31000137
H    19.20999908   7.63000011  55.00999832
H    21.55999947   7.63000011  54.51000214
H    23.85999870   8.28999996  54.98000336
H    22.34999847  10.59000015  58.47999954
H    14.40000057   9.18000031  58.68999863
H    25.45999908   9.73999977  56.13999939
H    24.86999893  10.90999985  57.22000122
S    13.86999989   7.31999969  54.23999786
C    11.17000008   7.22000027  55.00000000
C    12.44999981   7.64999962  55.26000214
C    12.76000023   8.18000031  56.55000305
C    11.72999954   8.43999958  57.43000031
C    10.40999985   8.05000019  57.11999893
C     9.35999966   8.13000011  58.06999969
C     8.07999992   7.69999981  57.78999710
C     7.73999977   7.27999973  56.47999573
C     8.71000004   7.18999958  55.51000214
C    10.06000042   7.44000006  55.86000061
C    14.19999981   8.34999943  56.70999908
C    14.89999962   7.86999989  55.56999969
C    16.28999901   7.90999985  55.56000137
C     6.37000036   6.69000053  56.23000336
H     5.97021723   7.23256207  55.37332153
H    11.11999989   6.71999979  54.02999878
H    11.94000053   8.85000038  58.41999817
H     9.52000046   8.38000011  59.12000275
H     7.39000034   7.60999966  58.62999725
H     8.50000000   6.98000002  54.45999908
H    16.87000084   7.51999950  54.72999954
H     5.61999989   6.72999954  57.02999878
H     6.48000002   5.61999989  56.04000092
S    13.99000072   5.42999983  51.31999969
C    11.31999969   4.92999983  52.11999893
C    12.67000008   4.82999992  52.34000397
C    13.15999985   4.28999996  53.56999969
C    12.28000069   3.75000000  54.47999954
C    10.88000107   3.76999998  54.25000000
C     9.98000050   3.22000003  55.20000076
C     8.64999962   3.08999991  54.87999725
C     8.10999966   3.65999985  53.69999695
C     8.97999954   4.32999992  52.85999680
C    10.39000034   4.42000008  53.06000137
C    14.61999989   4.35999966  53.67000198
C    15.21000004   4.92000008  52.50999832
C    16.55999947   5.26999998  52.41000366
C     6.67000008   3.45999980  53.27999878
H     6.38465977   3.83094168  52.29557800
H    10.92000008   5.35000038  51.19999695
H    12.57999992   3.32999992  55.44000244
H    10.40999985   2.79999995  56.10000229
H     7.96000004   2.59999990  55.56999969
H     8.65999985   4.74000025  51.90999985
H    17.02000046   5.96000004  51.72000122
H     6.40999985   2.40999985  53.41999817
H     6.14000034   4.17000008  53.94000244
S    18.01000023   4.05999994  55.93000031
C    20.62999916   4.48999977  55.20000076
C    19.30999947   4.59999990  54.85000229
C    18.82999992   5.07999992  53.59000397
C    19.72999954   5.63000011  52.70000076
C    21.09999847   5.55000019  53.02999878
C    22.10000038   6.03999996  52.14000320
C    23.45000076   6.03999996  52.43000031
C    23.87000084   5.51000023  53.68000031
C    22.95999908   5.01999950  54.59000015
C    21.57999992   4.94999981  54.23999786
C    17.38000107   4.96000004  53.50000000
C    16.80999947   4.38000011  54.66999817
C    15.47000027   4.00000000  54.71000290
C    25.35000038   5.46000004  54.00000000
H    25.62765312   5.48847723  55.05366135
H    20.95999908   4.02999973  56.11999893
H    19.50000000   5.95000029  51.69000244
H    21.73000145   6.38000011  51.18000031
H    24.23999977   6.24000025  51.70999908
H    23.38000107   4.55000019  55.47000122
H    15.06000042   3.45000005  55.54999924
H    25.86000061   6.24000025  53.41999817
H    25.65999985   4.51000023  53.54999924
