96

S    17.19000053   9.10000038  59.15000153
C    19.80999947   9.40999985  58.36999893
C    18.53000069   9.06999969  57.97999954
C    18.20000076   8.43999958  56.73999786
C    19.25000000   8.06999969  55.90999985
C    20.58000183   8.22000027  56.36000061
C    21.68999863   7.69000006  55.65000153
C    22.98000145   8.07999992  55.91999817
C    23.26000023   8.84000015  57.08000183
C    22.21999931   9.13999939  57.94000244
C    20.86999893   9.04999924  57.50000000
C    16.77000046   8.22000027  56.65000153
C    16.10000038   8.60000038  57.84000015
C    14.72000027   8.71999931  57.95000076
C    24.69000053   9.21000004  57.42000198
H    25.11628914   8.67003632  58.26547241
H    19.92000008   9.76000023  59.38999939
H    19.01000023   7.67000008  54.93000031
H    21.56999969   7.26000023  54.65000153
H    23.78999901   7.96000004  55.20999908
H    22.34000015   9.52000046  58.95000076
H    14.26000023   9.26999950  58.75999832
H    25.28000069   9.25000000  56.50000000
H    24.61000061  10.26000023  57.70999908
S    13.55000019   7.55000019  54.36000061
C    10.82999992   7.57999992  55.00000000
C    12.11999989   7.90999985  55.34999847
C    12.48000050   8.46000004  56.62000275
C    11.50000000   8.67000008  57.56999969
C    10.14000034   8.38999939  57.28000259
C     9.06000042   8.53999996  58.20000076
C     7.76999998   8.15999985  57.90999985
C     7.49000025   7.76000023  56.58000183
C     8.48999977   7.55000019  55.65999985
C     9.85000038   7.79999971  56.00000000
C    13.92000008   8.46000004  56.83000183
C    14.63000107   8.01999950  55.68000031
C    15.98999977   7.78999996  55.56000137
C     6.05000019   7.36999989  56.30000305
H     5.66257048   7.93679523  55.45339584
H    10.59999943   7.13999987  54.02999878
H    11.77999973   9.06000042  58.54000092
H     9.28999996   8.80999947  59.22999954
H     6.97000027   8.14999962  58.63999939
H     8.28999996   7.14999962  54.66999817
H    16.46999931   7.31999969  54.71000290
H     5.40000010   7.55000019  57.15999985
H     6.11000013   6.30000019  56.07999802
S    13.73999977   5.07000017  51.32999802
C    11.06999969   4.86999989  52.16999817
C    12.38999939   4.51999998  52.32999802
C    12.84000015   4.05000019  53.61000061
C    11.90999985   3.56999993  54.52000046
C    10.52999973   3.76999998  54.31000137
C     9.51000023   3.33999991  55.20999908
C     8.18000031   3.58000016  54.99000168
C     7.72000027   4.35999966  53.88999939
C     8.71000004   4.72000027  53.00000000
C    10.10000038   4.48000002  53.13000107
C    14.27999973   4.13999987  53.74000168
C    14.88999939   4.82999992  52.65999603
C    16.23999977   5.17000008  52.68000031
C     6.25000000   4.55999994  53.59000397
H     5.92892504   4.04628038  52.68385696
H    10.78999996   5.49000025  51.31999969
H    12.23999977   3.00000000  55.38999939
H     9.72999954   2.84000015  56.14999771
H     7.49000025   3.25999999  55.77000046
H     8.53999996   5.38000011  52.15999985
H    16.62999916   5.84000015  51.93000031
H     5.58000040   4.28999996  54.41999817
H     6.21000004   5.65000010  53.47000122
S    17.47999954   3.60000014  56.18000031
C    20.17000008   3.98000002  55.54999924
C    18.85000038   4.21999979  55.24000168
C    18.44000053   4.92000008  54.06000137
C    19.40999985   5.40999985  53.20000076
C    20.78000069   5.19000006  53.46000290
C    21.81999969   5.65000010  52.60000229
C    23.12999916   5.40999985  52.93000031
C    23.48999977   4.59999990  54.02999878
C    22.52000046   4.19999981  54.93000031
C    21.14999962   4.46999979  54.65000153
C    17.01000023   4.82999992  53.81000137
C    16.39000130   4.19999981  54.92000198
C    15.06000042   3.78999996  54.85000229
C    24.93999863   4.17000008  54.12000275
H    25.46602249   4.67469692  54.93036270
H    20.43999863   3.42000008  56.44000244
H    19.11999893   6.01000023  52.35000229
H    21.60000038   6.21000004  51.70000076
H    23.97000122   5.86999989  52.39999771
H    22.80999947   3.56999993  55.76000214
H    14.59000015   3.32999992  55.70999908
H    25.42000008   4.41000032  53.16999817
H    24.96000099   3.08999991  54.34999847
