96

S    17.25000000   8.69000053  59.52000046
C    19.95000076   8.47000027  58.85000229
C    18.63999939   8.27999973  58.50000000
C    18.29000092   7.67000008  57.25000000
C    19.31999969   7.36000013  56.38000107
C    20.68000031   7.71000004  56.59999847
C    21.71999931   7.72000027  55.63000107
C    22.98999977   8.10999966  55.96000290
C    23.26999855   8.73000050  57.21000290
C    22.25000000   8.88000011  58.11999893
C    20.96999931   8.30999947  57.87000275
C    16.84000015   7.62000036  57.11999893
C    16.13999939   8.13000011  58.25000000
C    14.75999928   8.21000004  58.31999969
C    24.68000031   9.13999939  57.55000305
H    24.97040367   8.79293156  58.54162216
H    20.10999870   9.02000046  59.78000259
H    19.11000061   6.76999998  55.50000000
H    21.31999969   7.35000038  54.68000031
H    23.71000099   7.99000025  55.14999771
H    22.37999916   9.50000000  59.00000000
H    14.34000015   8.73000050  59.18000031
H    25.48000145   8.71000004  56.93000031
H    24.72999954  10.24000072  57.56999969
S    13.55999947   6.90999985  54.78000259
C    10.82999992   7.05999947  55.41999817
C    12.13999939   7.30000019  55.77000046
C    12.58999920   7.75000000  57.04999924
C    11.56000042   8.01000023  57.94000244
C    10.19000053   7.82000017  57.64999771
C     9.19000053   7.95000029  58.64999771
C     7.88999987   7.55000019  58.40999985
C     7.46999979   7.22000027  57.09999847
C     8.42000008   7.11999989  56.10000229
C     9.80000019   7.36000013  56.33999634
C    14.02999973   7.83999968  57.18000031
C    14.72000027   7.30000019  56.06999969
C    16.10999870   7.17999983  56.02000427
C     6.01999998   6.90000010  56.84999847
H     5.55618382   7.36381626  55.97945404
H    10.64000034   6.65999985  54.43000031
H    11.84000015   8.47000027  58.88999939
H     9.57999992   8.19999981  59.62999725
H     7.30999994   7.49000025  59.33000183
H     8.10000038   6.84999990  55.10000229
H    16.53000069   6.75000000  55.12000275
H     5.38000011   7.14999962  57.70999908
H     6.10000038   5.80999947  56.73999786
S    17.53999901   8.45000076  53.22999954
C    20.19000053   8.67000008  52.42000198
C    18.89999962   8.28999996  52.09999847
C    18.53000069   7.96000004  50.76000214
C    19.52000046   7.81000042  49.80999756
C    20.85000038   8.17000008  50.13999939
C    21.90000153   8.11999989  49.16999817
C    23.19000053   8.50000000  49.43999863
C    23.54999924   8.88000011  50.76000214
C    22.56000137   9.04999924  51.69000244
C    21.21000099   8.67999935  51.43000031
C    17.07999992   7.99000025  50.63000107
C    16.43000031   8.23999977  51.86000061
C    15.05000019   8.34000015  52.04999924
C    25.02000046   9.13999939  51.03000259
H    25.32026863   8.85402775  52.03804779
H    20.43000031   9.06000042  53.40000153
H    19.37999916   7.39000034  48.81999969
H    21.67000008   7.62000036  48.22999954
H    23.92000008   8.32999992  48.64999771
H    22.62000084   9.48999977  52.68000031
H    14.59000015   8.57999992  53.01000214
H    25.59999847   8.56999969  50.28999710
H    25.22000122  10.19999981  50.86000061
S    13.76999950   7.44999981  48.34999847
C    11.10999966   7.40999985  49.20000076
C    12.42000008   7.71000004  49.47000122
C    12.81000042   8.10999966  50.79000092
C    11.87999916   8.26000023  51.79999924
C    10.52000046   8.00000000  51.51000214
C     9.53999996   8.13000011  52.54000092
C     8.23000050   7.81000042  52.25999832
C     7.79999971   7.46000004  50.94999695
C     8.73999977   7.26000023  49.98000336
C    10.11000061   7.57999992  50.20000076
C    14.26000023   8.05999947  50.93999863
C    14.88000011   7.82999992  49.68999863
C    16.26000023   7.73000002  49.52999878
C     6.32999992   7.18999958  50.70000076
H     5.87264395   7.76169538  49.89247894
H    10.82999992   6.98999977  48.22999954
H    12.15999985   8.56999969  52.81000137
H     9.84000015   8.60000038  53.47000122
H     7.55999994   7.88000011  53.09999847
H     8.51000023   6.96000004  48.95999908
H    16.65999985   7.62000036  48.53000259
H     5.77000046   7.32999992  51.63000107
H     6.12999964   6.11999989  50.52000046
