96

S    17.12000084   8.76999950  59.77000427
C    19.80999947   8.52999973  59.12000275
C    18.51000023   8.23000050  58.80000305
C    18.11000061   7.72000027  57.51999664
C    19.04999924   7.55999994  56.51000214
C    20.38000107   7.99000025  56.79000092
C    21.45999908   7.77999973  55.89000320
C    22.78000069   7.99000025  56.25000000
C    23.13999939   8.64000034  57.44999695
C    22.13000107   8.78999996  58.37999725
C    20.79000092   8.42000008  58.09999847
C    16.65999985   7.68000031  57.38999939
C    15.98999977   8.21000004  58.52000427
C    14.60999966   8.40999985  58.52000427
C    24.54000092   9.11999989  57.75000000
H    25.02210236   8.43229580  58.44479752
H    20.06000137   8.93999958  60.10000229
H    18.90999985   7.09000015  55.54999924
H    21.31000137   7.40000010  54.88999939
H    23.54000092   7.86000013  55.47999954
H    22.32999992   9.28999996  59.31999969
H    14.13000011   8.69000053  59.45000076
H    24.89999962   9.04999924  56.72000122
H    24.56999969  10.14000034  58.15000153
S    13.60000038   6.84999990  54.98000336
C    10.88000107   6.86999989  55.58000183
C    12.15999985   7.16000032  55.97000122
C    12.43999958   7.81000042  57.22000122
C    11.39999962   8.05000019  58.09000015
C    10.07999992   7.69000006  57.76000214
C     8.97999954   7.82999992  58.66000366
C     7.72000027   7.42000008  58.29000092
C     7.53000021   6.74000025  57.04999924
C     8.52999973   6.57999992  56.11999893
C     9.81000042   7.09999990  56.47999573
C    13.88000011   7.99000025  57.41000366
C    14.60000038   7.51999950  56.29000092
C    15.98000050   7.35000038  56.22000122
C     6.14000034   6.23000050  56.73999786
H     5.56358051   6.78507090  55.99990463
H    10.80999947   6.34999990  54.61999893
H    11.68000031   8.23999977  59.13000107
H     9.22000027   8.21000004  59.65000153
H     6.91999960   7.40999985  59.02000046
H     8.32999992   6.15000010  55.13999939
H    16.54000092   6.98999977  55.35999680
H     5.53999996   6.23000050  57.65999603
H     6.17999983   5.14999962  56.52000046
S    13.27000046   4.72000027  51.66999817
C    10.59999943   4.18000031  52.39999771
C    11.95000076   4.01999998  52.62000275
C    12.38000011   3.50000000  53.88000107
C    11.50000000   3.02999997  54.82999802
C    10.11000061   3.19999981  54.61000061
C     9.06000042   2.75999999  55.47000122
C     7.73000002   2.94999981  55.17000198
C     7.30999994   3.51999998  53.94000244
C     8.27999973   3.93000007  53.04999924
C     9.64999962   3.70000005  53.34000015
C    13.81999969   3.70000005  54.03999710
C    14.44000053   4.36999989  52.95999908
C    15.73999977   4.86000013  52.90000153
C     5.84999990   3.72000003  53.60000229
H     5.55807114   3.52775383  52.56756973
H    10.21000004   4.76999998  51.58000183
H    11.85999966   2.50000000  55.70999908
H     9.26999950   2.32999992  56.44000244
H     7.07999992   2.70000005  56.00000000
H     8.02999973   4.33999968  52.08000183
H    16.02000046   5.52999973  52.09000015
H     5.26000023   3.16000009  54.34000015
H     5.69000006   4.77999973  53.83999634
S    17.21999931   3.12999988  56.14999771
C    19.85000038   3.68000007  55.41999817
C    18.51000023   3.93000007  55.24000168
C    17.97999954   4.67000008  54.13000107
C    18.86999893   5.23999977  53.23999786
C    20.26000023   5.14999962  53.47999954
C    21.19999886   5.88999987  52.70000076
C    22.55000114   5.84000015  52.95000076
C    23.05000114   5.18000031  54.09999847
C    22.13999939   4.55999994  54.92000198
C    20.76000023   4.40000010  54.61000061
C    16.54999924   4.42999983  53.95000076
C    15.98999977   3.61999989  54.97000122
C    14.63999939   3.30000019  55.10000229
C    24.50000000   4.76999998  54.23999786
H    24.88388634   4.68469191  55.25658798
H    20.10999870   3.16000009  56.33999634
H    18.52000046   5.73999977  52.34000397
H    20.81999969   6.50000000  51.88999939
H    23.26000023   6.24000025  52.22999954
H    22.56000137   3.96000004  55.72000122
H    14.22000027   2.66000009  55.86999893
H    25.17000008   5.42999983  53.67000198
H    24.63999939   3.79999995  53.75999832
