96

S    16.92000008   8.67999935  59.27999878
C    19.63000107   8.40999985  58.73000336
C    18.34000015   8.34000015  58.27000046
C    17.98999977   7.90000010  56.95000076
C    19.02000046   7.63000011  56.06999969
C    20.38000107   7.76000023  56.45000076
C    21.45000076   7.68000031  55.52000046
C    22.77000046   7.94000053  55.81999969
C    23.00000000   8.42000008  57.12999725
C    22.00000000   8.57999992  58.06000137
C    20.65999985   8.14999962  57.80000305
C    16.54000092   7.85000038  56.81000137
C    15.80999947   8.27999973  57.95000076
C    14.44000053   8.50000000  58.02000046
C    24.37999916   8.89999962  57.51999664
H    24.81587219   8.36409283  58.36315536
H    19.88999939   8.82999992  59.69999695
H    18.77000046   7.53000021  55.01999664
H    21.28000069   7.36000013  54.48999786
H    23.54999924   7.94000053  55.06000137
H    22.19000053   9.21000004  58.93000031
H    13.90999985   8.76000023  58.93000031
H    24.97999954   8.78000069  56.60999680
H    24.28999901   9.96999931  57.74000168
S    13.21000004   7.22000027  54.47000122
C    10.57999992   6.96000004  55.22999573
C    11.82999992   7.44999981  55.56000137
C    12.23999977   7.88000011  56.86000061
C    11.21999931   8.07999992  57.77000046
C     9.89000034   7.76999998  57.42000198
C     8.82999992   7.73999977  58.36999893
C     7.53999996   7.36000013  58.06999969
C     7.23999977   6.90999985  56.76000214
C     8.17000008   6.98999977  55.76000214
C     9.52000046   7.27999973  56.11999893
C    13.68000031   8.03999996  56.93000031
C    14.37000084   7.64999962  55.75000000
C    15.75000000   7.48000050  55.70999908
C     5.84999990   6.38999987  56.49000168
H     5.28776550   6.95935059  55.74984360
H    10.40999985   6.48999977  54.27000046
H    11.42000008   8.51000023  58.75000000
H     9.03999996   7.99000025  59.40999985
H     6.71000004   7.51999950  58.75000000
H     8.00000000   6.74000025  54.71000290
H    16.25000000   6.97000027  54.89999771
H     5.31000042   6.24000025  57.43000031
H     6.03999996   5.36999989  56.13999939
S    13.76000023   5.44000053  51.59999847
C    11.06999969   4.72000027  51.93999863
C    12.38000011   4.59999990  52.35000229
C    12.79000092   3.98999977  53.56999969
C    11.77999973   3.44000006  54.34999847
C    10.40999985   3.48000002  53.96999741
C     9.36999989   3.02999997  54.81999969
C     8.05000019   3.07999992  54.43999863
C     7.68000031   3.79999995  53.27999878
C     8.65999985   4.32999992  52.47000122
C    10.03999901   4.13999987  52.74000168
C    14.22000027   4.07999992  53.79000092
C    14.91000080   4.82999992  52.80000305
C    16.28999901   5.01999950  52.77999878
C     6.25000000   4.21999979  53.04999924
H     5.72414494   3.55202198  52.36780930
H    10.77000046   5.42000008  51.17000198
H    11.96000004   2.89999986  55.27000046
H     9.77999973   2.73000002  55.79000092
H     7.30999994   2.92000008  55.21999741
H     8.47999954   4.92000008  51.56999969
H    16.67000008   5.82000017  52.15000153
H     5.80999947   4.28000021  54.06000137
H     6.21999979   5.26999998  52.72999573
S    17.38999939   3.33999991  56.20999908
C    20.13999939   3.74000025  55.66999817
C    18.81999969   3.86999989  55.31000137
C    18.43000031   4.39000034  54.02999878
C    19.45000076   4.76999998  53.16999817
C    20.82999992   4.75000000  53.47999954
C    21.84999847   5.25000000  52.62000275
C    23.15000153   5.14999962  53.06000137
C    23.52000046   4.55999994  54.29999924
C    22.52000046   4.15000010  55.13999939
C    21.14000130   4.21000004  54.78000259
C    17.00000000   4.35999966  53.79000092
C    16.31000137   3.71000004  54.85000229
C    14.93000031   3.55999994  54.87999725
C    24.99000168   4.44999981  54.64000320
H    25.26867867   4.82157040  55.62609482
H    20.31999969   3.16000009  56.56999969
H    19.15999985   5.14999962  52.19999695
H    21.56999969   5.89999962  51.79999924
H    23.95999908   5.36000013  52.36999893
H    22.80999947   3.77999997  56.11999893
H    14.39000034   2.98000002  55.61999893
H    25.61000061   5.03000021  53.95000076
H    25.20999908   3.37000012  54.54999924
