96

S    17.60000038   8.55000019  59.47999954
C    20.25000000   9.01000023  58.67000198
C    18.96000099   8.63000011  58.34000015
C    18.67000008   8.10000038  57.04999924
C    19.64999962   8.19999981  56.07999802
C    20.95999908   8.64999962  56.36000061
C    22.01999855   8.40999985  55.44000244
C    23.31999969   8.55000019  55.86000061
C    23.64999962   8.71999931  57.22999954
C    22.65000153   8.97000027  58.13999939
C    21.28999901   9.02000046  57.70999908
C    17.25000000   7.81000042  56.93999863
C    16.55999947   7.97999954  58.16999817
C    15.17000008   8.01999950  58.18000031
C    24.96000099   8.14000034  57.71999741
H    25.20934105   8.31097603  58.76723099
H    20.62999916   9.22999954  59.65999985
H    19.45000076   8.00000000  55.02999878
H    21.87999916   7.95000029  54.45999908
H    24.11999893   8.19999981  55.21999741
H    22.85000038   8.96000004  59.20999908
H    14.60999966   8.25000000  59.08000183
H    24.96999931   7.05999947  57.50999832
H    25.69000053   8.55000019  57.00000000
S    14.09000015   7.26999998  54.40999985
C    11.33999920   7.13999987  55.06000137
C    12.64000034   7.40999985  55.41999817
C    13.02000046   7.73000002  56.77000046
C    12.01000023   7.96000004  57.68000031
C    10.65000057   7.76999998  57.31999969
C     9.55999947   7.95000029  58.22000122
C     8.23000050   7.79999971  57.93000031
C     7.92000008   7.28999996  56.63000107
C     8.93000031   7.00000000  55.73999786
C    10.29000092   7.32999992  55.98999786
C    14.45000076   7.85000038  56.98999786
C    15.15999985   7.62000036  55.77999878
C    16.54999924   7.53000021  55.76000214
C     6.51999998   6.77999973  56.43000031
H     5.94491529   7.51128054  55.86201477
H    11.13999939   6.63000011  54.12000275
H    12.30000019   8.36000061  58.64999771
H     9.85999966   7.97999954  59.26000214
H     7.53000021   7.95000029  58.75000000
H     8.71000004   6.52999973  54.79000092
H    17.05000114   7.37999964  54.80999756
H     5.86000013   6.52999973  57.27000427
H     6.63999987   5.84999990  55.86000061
S    14.14000034   5.17000008  51.33999634
C    11.44000053   4.63999987  52.02000046
C    12.77999973   4.44000006  52.22000122
C    13.21000004   3.75000000  53.40000153
C    12.25999928   3.19000006  54.22999954
C    10.85999966   3.35000014  54.05000305
C     9.85999966   2.96999979  54.98000336
C     8.53999996   3.28999996  54.75000000
C     8.15999985   3.98000002  53.56999969
C     9.09000015   4.32999992  52.61000061
C    10.46000004   4.02999973  52.84999847
C    14.60999966   4.01999998  53.70999908
C    15.21999931   4.80999994  52.69000244
C    16.46999931   5.32000017  53.00000000
C     6.71000004   4.30999994  53.29000092
H     6.34790897   3.68521595  52.47352219
H    11.13999939   5.22000027  51.14999771
H    12.51999950   2.59000015  55.10000229
H    10.13000011   2.27999997  55.77000046
H     7.78999996   2.82000017  55.38000107
H     8.88000011   4.84000015  51.68000031
H    16.82999992   6.03999996  52.27000427
H     6.03999996   4.19999981  54.15000153
H     6.70000029   5.36999989  53.00000000
S    17.87999916   3.50000000  56.24000168
C    20.52000046   4.25000000  55.70999908
C    19.19000053   4.28999996  55.34000015
C    18.72999954   4.99000025  54.19000244
C    19.70000076   5.46000004  53.30999756
C    21.07000160   5.35000038  53.60000229
C    22.04999924   5.82000017  52.68000031
C    23.38000107   5.66999960  53.02000046
C    23.87000084   5.17000008  54.26000214
C    22.90999985   4.56999969  55.04000092
C    21.51000023   4.76999998  54.85000229
C    17.28999901   4.84000015  54.02999878
C    16.69000053   4.05000019  55.04000092
C    15.34999943   3.75999975  54.86999893
C    25.36000061   5.05999994  54.52000046
H    25.70077705   4.61983013  55.45713425
H    20.86000061   3.65000010  56.56000137
H    19.38999939   5.95000029  52.38999939
H    21.73000145   6.34999990  51.79999924
H    24.15999985   6.12999964  52.42000198
H    23.19999886   4.07999992  55.96000290
H    14.77000046   3.22000003  55.61000061
H    25.79999924   6.05999994  54.43999863
H    25.76000023   4.50000000  53.67000198
