96

S    17.35000038   8.42000008  59.55999756
C    20.00000000   8.73999977  58.83999634
C    18.71999931   8.40999985  58.43000031
C    18.38000107   7.92999983  57.12999725
C    19.34999847   7.90999985  56.13999939
C    20.68000031   8.23000050  56.51000214
C    21.71999931   8.27999973  55.54999924
C    23.02000046   8.60000038  55.86000061
C    23.36999893   8.93000031  57.19999695
C    22.36000061   9.01000023  58.13000107
C    21.01000023   8.67000008  57.84000015
C    16.94000053   7.78999996  57.01000214
C    16.25000000   8.10999966  58.20999908
C    14.85999966   8.17000008  58.18999863
C    24.79000092   9.30000019  57.57999802
H    25.16045570   8.96516418  58.54888916
H    20.20999908   8.90999985  59.88999939
H    19.12999916   7.60999966  55.12000275
H    21.47999954   7.86999989  54.56999969
H    23.78999901   8.56000042  55.10000229
H    22.60000038   9.36999989  59.12000275
H    14.26000023   8.36999989  59.06999969
H    25.45000076   8.76000023  56.88000107
H    24.90999985  10.38000011  57.48000336
S    13.85000038   7.30000019  54.41999817
C    11.10999966   7.31999969  55.06000137
C    12.41000080   7.57999992  55.41999817
C    12.76000023   7.99000025  56.75000000
C    11.72000027   8.19999981  57.64999771
C    10.36999893   7.86999989  57.38999939
C     9.30000019   7.90999985  58.31999969
C     8.07999992   7.37999964  57.98999786
C     7.88999987   6.75000000  56.72999954
C     8.82000065   6.86999989  55.72000122
C    10.10000038   7.37999964  56.05999756
C    14.19999981   8.01000023  56.97000122
C    14.91000080   7.63000011  55.79999924
C    16.28999901   7.51999950  55.79999924
C     6.54999971   6.12999964  56.42000198
H     6.01903296   6.49813700  55.54213715
H    10.86999989   6.80000019  54.13999939
H    12.11999989   8.48999977  58.61999893
H     9.48999977   8.28999996  59.31999969
H     7.31999969   7.40999985  58.75999832
H     8.67000008   6.46000004  54.72999954
H    16.82999992   7.13999987  54.93999863
H     5.95000029   6.43000031  57.28000259
H     6.71999979   5.05000019  56.37000275
S    17.50000000   9.26000023  53.13000107
C    20.13999939   9.44000053  52.50999832
C    18.93000031   8.90999985  52.14000320
C    18.55999947   8.36000061  50.86999893
C    19.57999992   8.27000046  49.94999695
C    20.84000015   8.85000038  50.21999741
C    21.94000053   8.55000019  49.36999893
C    23.25000000   8.75000000  49.73999786
C    23.54999924   9.48000050  50.91999817
C    22.50000000   9.78999996  51.75000000
C    21.14999962   9.42000008  51.51000214
C    17.11000061   8.27999973  50.70999908
C    16.39999962   8.71999931  51.84999847
C    15.01000023   8.78000069  51.91999817
C    25.00000000   9.85000038  51.18000031
H    25.42103004   9.41469860  52.08628082
H    20.38000107   9.86999989  53.47999954
H    19.47999954   7.76999998  48.99000168
H    21.71999931   7.88000011  48.54000092
H    24.07999992   8.34000015  49.18000031
H    22.75000000  10.25000000  52.70000076
H    14.46000004   9.09000015  52.80000305
H    25.59000015   9.63999939  50.28999710
H    25.10999870  10.93999958  51.14999771
S    13.97999954   7.50000000  48.29999924
C    11.23000050   7.57000017  48.88000107
C    12.53000069   7.83999968  49.26000214
C    12.84000015   8.30999947  50.58000183
C    11.82000065   8.56999969  51.47999573
C    10.48999977   8.25000000  51.12999725
C     9.46000004   8.30000019  52.11000061
C     8.18000031   8.01000023  51.72000122
C     7.82000017   7.69999981  50.38000107
C     8.80999947   7.59999990  49.43999863
C    10.18000031   7.81000042  49.79000092
C    14.27999973   8.43999958  50.77999878
C    15.01999950   7.92000008  49.68000031
C    16.39999962   7.95000029  49.54999924
C     6.42000008   7.27999973  49.99000168
H     5.92986345   7.84117079  49.19441986
H    10.98999977   7.09999990  47.93000031
H    12.05000019   8.82000065  52.50999832
H     9.75000000   8.73000050  53.06999969
H     7.44999981   7.94000053  52.51999664
H     8.52999973   7.21000004  48.46000290
H    16.93000031   7.81000042  48.61000061
H     5.71000004   7.35000038  50.83000183
H     6.40999985   6.21999979  49.73999786
