96

S    16.95000076   8.89000034  59.18000031
C    19.63000107   9.02000046  58.47999954
C    18.38000107   8.51000023  58.20000076
C    18.06999969   7.96999979  56.90999985
C    19.13999939   7.83999968  56.04999924
C    20.48999977   8.14999962  56.33999634
C    21.61000061   7.86000013  55.51000214
C    22.86999893   8.30000019  55.80999756
C    23.13999939   8.98999977  57.02000046
C    22.06000137   9.19000053  57.85999680
C    20.71000099   8.84000015  57.58999634
C    16.63999939   7.81000042  56.73999786
C    15.92000008   8.30000019  57.85999680
C    14.53999996   8.31999969  57.91999817
C    24.54000092   9.52000046  57.23999786
H    24.98113251   8.95079517  58.05823135
H    19.80999947   9.44000053  59.47000122
H    19.05999947   7.53999996  55.00999832
H    21.47999954   7.20000029  54.65000153
H    23.68999863   8.13000011  55.12000275
H    22.39000130   9.59999943  58.81000137
H    14.06000042   8.76999950  58.79000092
H    25.12000084   9.50000000  56.31000137
H    24.41999817  10.57999992  57.51999664
S    13.45000076   7.26000023  54.27000046
C    10.70000076   6.98999977  54.99000168
C    11.97999954   7.40999985  55.26000214
C    12.30000019   7.88000011  56.58000183
C    11.26999950   8.03999996  57.48000336
C     9.90999985   7.78999996  57.18999863
C     8.85999966   7.96999979  58.13999939
C     7.59999990   7.50999975  57.84000015
C     7.36999989   6.84999990  56.60999680
C     8.36000061   6.60000038  55.68000031
C     9.67000008   7.09000015  55.94999695
C    13.73000050   7.94000053  56.84000015
C    14.47000027   7.53000021  55.70000076
C    15.85000038   7.40000010  55.65000153
C     5.98000002   6.44999981  56.18000031
H     5.60922575   7.13450670  55.41706085
H    10.40999985   6.54999971  54.03999710
H    11.51000023   8.50000000  58.43000031
H     9.13999939   8.11999989  59.18000031
H     6.88000011   7.50999975  58.66000366
H     8.13000011   6.11999989  54.73999786
H    16.26000023   7.16000032  54.66999817
H     5.32999992   6.48999977  57.06999969
H     5.96000004   5.45000029  55.72999954
S    13.71000099   5.09000015  51.18999863
C    11.00999928   4.84000015  51.93999863
C    12.34000015   4.59999990  52.21000290
C    12.74000072   4.09000015  53.48999786
C    11.78999996   3.61000013  54.36999893
C    10.39999962   3.78999996  54.13999939
C     9.32999992   3.26999998  54.92000198
C     8.01999950   3.38000011  54.52999878
C     7.68000031   3.98999977  53.29000092
C     8.67999935   4.50000000  52.49000168
C    10.05000019   4.42000008  52.88999939
C    14.17000008   4.26000023  53.67000198
C    14.84000015   4.76000023  52.52999878
C    16.20000076   5.03000021  52.41000366
C     6.21999979   3.94000006  52.88999939
H     6.04233503   3.18669987  52.12248611
H    10.77999973   5.13000011  50.91999817
H    12.06999969   3.14000010  55.31000137
H     9.63000011   2.77999997  55.84000015
H     7.30000019   3.00000000  55.24000168
H     8.39999962   4.99000025  51.56999969
H    16.65999985   5.42999983  51.52000046
H     5.68000031   3.58999991  53.76999664
H     5.78999996   4.92000008  52.64999771
S    17.46000099   3.81999993  56.00999832
C    20.10000038   4.03999996  55.26000214
C    18.79999924   4.36999989  54.98000336
C    18.37000084   4.85000038  53.69999695
C    19.36000061   5.31000042  52.84999847
C    20.72000122   5.07999992  53.13000107
C    21.75000000   5.52999973  52.25000000
C    23.09000015   5.40000010  52.52999878
C    23.47999954   4.75000000  53.73000336
C    22.50999832   4.30999994  54.61000061
C    21.11999893   4.42000008  54.34999847
C    16.92000008   4.72000027  53.56999969
C    16.29999924   4.15999985  54.71000290
C    14.94999981   3.86000013  54.77000427
C    24.92000198   4.53999996  54.12000275
H    25.26071167   5.18593264  54.92919159
H    20.38999939   3.61999989  56.22000122
H    19.07999992   5.82000017  51.93000031
H    21.45000076   5.91000032  51.27999878
H    23.90999985   5.69000006  51.88999939
H    22.72000122   3.75999975  55.52000046
H    14.52000046   3.22000003  55.52999878
H    25.62000084   4.67999983  53.29000092
H    24.90999985   3.51000023  54.50000000
