96

S    16.72000122   8.53999996  59.62999725
C    19.47000122   8.47000027  58.86000061
C    18.12999916   8.26000023  58.59000397
C    17.79000092   7.77999973  57.29000092
C    18.79999924   7.48000050  56.38999939
C    20.17000008   7.76000023  56.62000275
C    21.19999886   7.63999987  55.65000153
C    22.47999954   8.06999969  55.89000320
C    22.79999924   8.69999981  57.12999725
C    21.83000183   8.80999947  58.09999847
C    20.50000000   8.34999943  57.88999939
C    16.35000038   7.73000002  57.09999847
C    15.67999935   8.27999973  58.22000122
C    14.29999924   8.45000076  58.18000031
C    24.23000145   9.11999989  57.35000229
H    24.69820213   8.60214233  58.18708801
H    19.62000084   8.89999962  59.84000397
H    18.50000000   6.80999994  55.59000015
H    21.00000000   7.40000010  54.59999847
H    23.25000000   8.05999947  55.12000275
H    21.94000053   9.15999985  59.13000107
H    13.81000042   8.92000008  59.02999878
H    24.86999893   9.13999939  56.45999908
H    24.25000000  10.18000031  57.63999939
S    13.17999935   7.07999992  54.61000061
C    10.48999977   6.98000002  55.30000305
C    11.77000046   7.35000038  55.63999939
C    12.13999939   7.92000008  56.90999985
C    11.07999992   8.18000031  57.77000046
C     9.73999977   7.86000013  57.45999908
C     8.61999989   7.92999983  58.34000015
C     7.34000015   7.50999975  58.06999969
C     7.09999990   6.90000010  56.81000137
C     8.11999989   6.75000000  55.90000153
C     9.43000031   7.21000004  56.22000122
C    13.57999992   8.03999996  57.04999924
C    14.27999973   7.53999996  55.93000031
C    15.67000008   7.48000050  55.90000153
C     5.68000031   6.50000000  56.47999573
H     5.21775675   7.08313799  55.68351364
H    10.21999931   6.58999968  54.31999969
H    11.31999969   8.48999977  58.77999878
H     8.71000004   8.34999943  59.34000015
H     6.57000017   7.82000017  58.76999664
H     7.96999979   6.21999979  54.95999908
H    16.21000099   7.31999969  54.97000122
H     5.05000019   6.67000008  57.36000061
H     5.58000040   5.46000004  56.12999725
S    13.64999962   5.09000015  51.49000168
C    10.95999908   4.41000032  52.14000320
C    12.30999947   4.40000010  52.43000031
C    12.77999973   3.75000000  53.61000061
C    11.79999924   3.38000011  54.51000214
C    10.40999985   3.33999991  54.27999878
C     9.48000050   2.94999981  55.27999878
C     8.13000011   3.08999991  55.05000305
C     7.65999985   3.72000003  53.86000061
C     8.56999969   4.11000013  52.90999985
C     9.96999931   3.88999987  53.02000046
C    14.22000027   3.88999987  53.76999664
C    14.84000015   4.63999987  52.72999573
C    16.13000107   5.13999987  52.85999680
C     6.19999981   4.05000019  53.66000366
H     5.80877209   3.69433832  52.70682526
H    10.67999935   4.97000027  51.25000000
H    12.13000107   3.00000000  55.47999954
H     9.85999966   2.56000018  56.22000122
H     7.44999981   2.87999988  55.86999893
H     8.21000004   4.76000023  52.11000061
H    16.54000092   5.69000006  52.02999878
H     5.65999985   3.56999993  54.48999786
H     5.95000029   5.10999966  53.59000397
S    17.43999863   3.40000010  56.23000336
C    20.15000153   3.76999998  55.44000244
C    18.81000137   4.01999998  55.27999878
C    18.34000015   4.69999981  54.10999680
C    19.22999954   5.32000017  53.23999786
C    20.62000084   5.19999981  53.48999786
C    21.57999992   5.86000013  52.67000198
C    22.90999985   5.80999947  53.02999878
C    23.36999893   4.92999983  54.05000305
C    22.46999931   4.28999996  54.86000061
C    21.07999992   4.38000011  54.56999969
C    16.88999939   4.67000008  53.94000244
C    16.28999901   3.96000004  55.00000000
C    14.94999981   3.56999993  54.92000198
C    24.86000061   4.71000004  54.19000244
H    25.37987709   5.25124121  54.98049927
H    20.48999977   3.10999990  56.24000168
H    18.95000076   5.86999989  52.35000229
H    21.35000038   6.24000025  51.68000031
H    23.61999893   6.24000025  52.31999969
H    22.79999924   3.68000007  55.70999908
H    14.55000019   3.01999998  55.77000046
H    25.28000069   4.90000010  53.18999863
H    24.96000099   3.63999987  54.38999939
