96

S    17.15999985   9.31999969  59.47999954
C    19.88000107   9.44999981  58.70999908
C    18.57999992   9.07999992  58.43999863
C    18.22999954   8.43999958  57.19999695
C    19.22999954   8.15999985  56.29000092
C    20.55999947   8.56000042  56.52999878
C    21.63999939   8.45000076  55.59999847
C    22.89999962   8.82999992  56.00000000
C    23.22999954   9.22999954  57.31999969
C    22.22999954   9.46000004  58.22999954
C    20.90999985   9.19000053  57.77000046
C    16.77999878   8.36999989  57.04000092
C    16.05999947   8.78999996  58.18999863
C    14.67000008   8.90999985  58.23999786
C    24.68000031   9.55999947  57.60000229
H    25.04930115   8.94923306  58.42382431
H    20.20999908   9.78999996  59.68000031
H    18.95000076   7.68000031  55.34999847
H    21.48999977   8.13000011  54.56999969
H    23.57999992   8.88000011  55.14999771
H    22.43000031   9.96999931  59.16999817
H    14.29999924   9.30000019  59.18000031
H    25.30999947   9.28999996  56.73999786
H    24.79999924  10.64000034  57.70999908
S    13.60000038   7.97999954  54.48999786
C    10.90999985   7.72000027  55.20999908
C    12.18999958   8.03999996  55.56999969
C    12.51999950   8.34999943  56.93000031
C    11.50000000   8.56999969  57.84000015
C    10.14000034   8.51000023  57.44999695
C     9.10000038   8.76999950  58.37999725
C     7.81000042   8.43999958  58.02000046
C     7.53000021   7.75000000  56.81000137
C     8.55000019   7.48000050  55.91999817
C     9.88000011   7.88999987  56.17000198
C    13.94999981   8.48999977  57.11000061
C    14.63999939   8.18000031  55.90999985
C    16.02000046   8.02999973  55.91999817
C     6.11000013   7.36000013  56.51000214
H     5.66148329   7.81563616  55.62720490
H    10.78999996   7.35000038  54.19000244
H    11.79999924   8.76999950  58.87000275
H     9.34000015   9.02999973  59.40000153
H     6.94999981   8.65999985  58.66000366
H     8.31999969   7.03000021  54.95999908
H    16.56999969   7.81000042  55.00000000
H     5.56999969   7.60999966  57.43000031
H     6.00000000   6.26999950  56.40999603
S    13.50999928   5.44000053  51.68000031
C    10.85999966   5.13999987  52.35000229
C    12.15999985   5.13999987  52.78999710
C    12.56999969   4.55999994  54.02999878
C    11.61000061   4.00999975  54.87999725
C    10.25000000   4.09000015  54.50000000
C     9.22000027   3.51000023  55.28999710
C     7.90000010   3.77999997  54.98000336
C     7.53999996   4.44999981  53.77999878
C     8.50000000   4.78999996  52.84999847
C     9.85999966   4.67999983  53.25000000
C    14.01999950   4.63000011  54.13000107
C    14.65000057   5.25000000  53.02999878
C    16.01000023   5.55000019  52.97999954
C     6.09000015   4.75000000  53.44999695
H     5.71961308   4.35824490  52.50266266
H    10.47999954   5.55999994  51.42000198
H    11.82000065   3.42000008  55.76000214
H     9.40999985   3.10999990  56.27999878
H     7.09999990   3.65000010  55.70000076
H     8.30999947   5.13000011  51.84000015
H    16.39999962   6.05999994  52.11000061
H     5.36000013   4.55000019  54.23999786
H     6.01000023   5.84000015  53.30999756
S    17.35999870   4.32999992  56.50000000
C    20.03000069   4.69999981  55.80999756
C    18.71000099   4.90000010  55.50000000
C    18.27000046   5.40999985  54.22999954
C    19.20999908   5.79999971  53.29999924
C    20.58000183   5.63000011  53.57999802
C    21.54999924   6.07999992  52.63999939
C    22.86999893   5.92999983  52.97999954
C    23.29999924   5.33999968  54.20000076
C    22.37999916   4.86000013  55.10000229
C    21.00000000   5.03999996  54.82999802
C    16.81999969   5.26999998  54.08000183
C    16.20000076   4.61999989  55.18000031
C    14.84000015   4.34999990  55.22999573
C    24.77999878   5.18000031  54.48999786
H    25.18617249   5.58617306  55.41635895
H    20.31999969   4.23999977  56.75000000
H    18.94000053   6.09000015  52.29000092
H    21.40000153   6.51999998  51.65000153
H    23.57999992   6.30999994  52.25000000
H    22.59000015   4.51999998  56.11000061
H    14.44000053   3.68999982  55.98999786
H    25.30999947   5.65999985  53.66000366
H    24.87999916   4.09000015  54.54000092
