96

S    16.72000122   9.02999973  59.38000107
C    19.37999916   9.27999973  58.69999695
C    18.15999985   8.71999931  58.40000153
C    17.81999969   8.15999985  57.11999893
C    18.78999901   8.11999989  56.14999771
C    20.09000015   8.60000038  56.44000244
C    21.15999985   8.31999969  55.54999924
C    22.44999886   8.67999935  55.84999847
C    22.75000000   9.35000038  57.06999969
C    21.75000000   9.56999969  57.97999954
C    20.40999985   9.17000008  57.72999573
C    16.36999893   8.09000015  56.95000076
C    15.62999916   8.56000042  58.06000137
C    14.23999977   8.56999969  58.13000107
C    24.18999863   9.70000076  57.36000061
H    24.71673965   8.97395325  57.97927475
H    19.48999977   9.73999977  59.68000031
H    18.63999939   7.60999966  55.20000076
H    20.88999939   7.81000042  54.61999893
H    23.19999886   8.65999985  55.06000137
H    22.01999855   9.89000034  58.97999573
H    13.78999901   8.93000031  59.05000305
H    24.82000160   9.81000042  56.45999908
H    24.17000008  10.65999985  57.88999939
S    13.20000076   7.30000019  54.47999954
C    10.47999954   7.14999962  55.27000046
C    11.76000023   7.62000036  55.45999908
C    12.09000015   8.17000008  56.73999786
C    11.10999966   8.30999947  57.71999741
C     9.78999996   7.82999992  57.51999664
C     8.65999985   8.10000038  58.34000015
C     7.39000034   7.69000006  58.02999878
C     7.17000008   6.88000011  56.88000107
C     8.13000011   6.84000015  55.90000153
C     9.44999981   7.26999998  56.24000168
C    13.52000046   8.27999973  56.95999908
C    14.22000027   7.73000002  55.86999893
C    15.60999966   7.73999977  55.83000183
C     5.75999975   6.52999973  56.46999741
H     5.36256170   7.21132231  55.71770477
H    10.19999981   6.65999985  54.34000015
H    11.33999920   8.69000053  58.70999908
H     8.76000023   8.64999962  59.27000046
H     6.57000017   8.02999973  58.64999771
H     7.82999992   6.43000031  54.93999863
H    16.17000008   7.36000013  54.97000122
H     5.13999987   6.54999971  57.36999893
H     5.72000027   5.50000000  56.09000397
S    13.36999989   5.40999985  51.58000183
C    10.65999985   4.72000027  52.19999695
C    12.00000000   4.75000000  52.50999832
C    12.48000050   4.15000010  53.70999908
C    11.59000015   3.58999991  54.61000061
C    10.19999981   3.60000014  54.34999847
C     9.22999954   3.05000019  55.24000168
C     7.90999985   2.94999981  54.86999893
C     7.44999981   3.45999980  53.62999725
C     8.36000061   4.00999975  52.76000214
C     9.73999977   4.13999987  53.09999847
C    13.93000031   4.23000002  53.83999634
C    14.57999992   4.90000010  52.77000046
C    15.90999985   5.28999996  52.84999847
C     5.98000002   3.25999999  53.31999969
H     5.68912935   3.95525169  52.53252411
H    10.29000092   5.18000031  51.27999878
H    11.85999966   3.25999999  55.61000061
H     9.61000061   2.71000004  56.20999908
H     7.17999983   2.63999987  55.61000061
H     8.06999969   4.42999983  51.79000092
H    16.31999969   5.93999958  52.08000183
H     5.72000027   2.23000002  53.04999924
H     5.40000010   3.49000001  54.20999908
S    17.29999924   3.67000008  56.17000198
C    19.96999931   4.32999992  55.54999924
C    18.61999893   4.42999983  55.27000046
C    18.15999985   5.03999996  54.06000137
C    19.11000061   5.64000034  53.25000000
C    20.50000000   5.58000040  53.53000259
C    21.55999947   6.07999992  52.71999741
C    22.88000107   5.78999996  52.95000076
C    23.29999924   5.18000031  54.15999985
C    22.32999992   4.57999992  54.93000031
C    20.95999908   4.77999973  54.64000320
C    16.72999954   4.86000013  53.89999771
C    16.10999870   4.09999990  54.93000031
C    14.75000000   3.79999995  54.88999939
C    24.73999977   4.76000023  54.31000137
H    25.22180748   5.10718489  55.22401810
H    20.35000038   3.89999986  56.46999741
H    18.85000038   5.93999958  52.23999786
H    21.35000038   6.51999998  51.75000000
H    23.59999847   6.24000025  52.25999832
H    22.53000069   3.96000004  55.79999924
H    14.34999943   3.40000010  55.81999969
H    25.20000076   5.09000015  53.36999893
H    24.75000000   3.67000008  54.34999847
