96

S    16.82999992   8.78000069  59.19000244
C    19.55000114   8.61999989  58.54000092
C    18.23999977   8.47000027  58.15999985
C    17.88999939   7.96000004  56.86000061
C    18.89000130   7.81000042  55.91999817
C    20.26000023   8.00000000  56.23000336
C    21.31999969   8.06999969  55.27999878
C    22.62000084   8.27000046  55.68999863
C    22.90999985   8.38000011  57.06999969
C    21.91999817   8.56000042  58.01000214
C    20.56999969   8.42000008  57.56999969
C    16.45000076   7.86000013  56.70999908
C    15.76000023   8.34999943  57.84999847
C    14.40000057   8.63000011  57.80000305
C    24.34999847   8.61999989  57.44999695
H    24.69762421   8.21562099  58.40064621
H    19.67000008   8.93000031  59.56999969
H    18.56999969   7.69000006  54.88999939
H    21.02999878   8.10999966  54.23999786
H    23.46999931   8.43999958  55.02999878
H    22.11999893   8.76000023  59.06000137
H    13.86000061   9.06000042  58.63999939
H    24.99000168   8.22000027  56.65999985
H    24.41999817   9.71000004  57.35000229
S    13.23999977   7.05999947  54.33000183
C    10.57000065   6.97000027  54.99000168
C    11.82999992   7.40000010  55.34999847
C    12.23000050   8.07999992  56.53999710
C    11.19999981   8.34000015  57.43000031
C     9.92999935   7.78999996  57.16999817
C     8.97999954   8.01999950  58.20000076
C     7.65999985   7.69000006  57.95999908
C     7.26000023   7.17000008  56.70000076
C     8.15999985   6.84999990  55.70999908
C     9.52999973   7.17000008  55.93000031
C    13.67000008   8.23000050  56.66999817
C    14.35999966   7.63999987  55.58000183
C    15.73999977   7.46999979  55.56000137
C     5.79999971   6.90000010  56.39999771
H     5.43620729   7.68465090  55.73661423
H    10.26999950   6.54999971  54.03999710
H    11.35000038   8.85999966  58.37999725
H     9.26999950   8.63000011  59.05000305
H     7.00000000   7.86999989  58.80000305
H     7.79999971   6.52999973  54.73999786
H    16.22999954   7.11000013  54.65999985
H     5.21000004   6.83000040  57.31999969
H     5.75999975   5.93999958  55.86999893
S    17.11000061   9.35999966  53.11000061
C    19.80999947   9.68000031  52.35000229
C    18.54999924   9.22000027  52.09000015
C    18.20000076   8.48999977  50.90000153
C    19.26000023   8.07999992  50.11000061
C    20.56999969   8.57999992  50.25000000
C    21.63999939   8.34999943  49.33000183
C    22.93000031   8.75000000  49.56999969
C    23.21000099   9.43000031  50.79000092
C    22.20999908   9.70000076  51.68000031
C    20.86000061   9.30000019  51.46999741
C    16.77000046   8.28999996  50.70999908
C    16.03000069   8.78999996  51.81000137
C    14.65000057   8.80999947  51.86999893
C    24.64999962   9.68000031  51.19999695
H    25.07110977   9.00194168  51.94229126
H    20.09000015  10.25000000  53.22999954
H    19.03000069   7.50000000  49.22000122
H    21.50000000   8.06999969  48.29000092
H    23.64000130   8.59000015  48.75999832
H    22.46999931  10.34000015  52.52999878
H    14.01999950   9.03999996  52.74000168
H    25.25000000   9.77000046  50.28999710
H    24.71999931  10.70000076  51.59999847
S    13.57999992   7.50000000  48.23999786
C    10.90999985   7.46000004  48.88000107
C    12.15999985   7.92999983  49.20999908
C    12.57999992   8.47999954  50.47000122
C    11.59999943   8.73999977  51.40999603
C    10.26000023   8.36999989  51.11999893
C     9.23999977   8.46000004  52.09999847
C     7.92000008   8.10999966  51.90000153
C     7.59000015   7.57999992  50.61999893
C     8.59000015   7.28999996  49.71000290
C     9.94999981   7.68000031  49.89999771
C    14.01999950   8.47999954  50.66999817
C    14.70000076   7.97999954  49.52999878
C    16.07999992   7.82000017  49.59000015
C     6.21999979   7.07000017  50.24000168
H     5.75120449   7.69506121  49.47998047
H    10.64000034   7.17000008  47.87000275
H    11.97000027   9.00000000  52.39999771
H     9.59999943   8.75000000  53.08000183
H     7.21000004   8.22000027  52.70999908
H     8.43000031   6.76999998  48.76999664
H    16.62999916   7.63000011  48.67000198
H     5.59000015   7.13000011  51.13999939
H     6.32999992   6.01000023  49.98000336
