96

S    16.69000053   8.31999969  59.59000015
C    19.40999985   8.59000015  58.88999939
C    18.09999847   8.34000015  58.52000427
C    17.73999977   7.90999985  57.19999695
C    18.78000069   7.81000042  56.29000092
C    20.12000084   8.10999966  56.59999847
C    21.18999863   8.07999992  55.65999985
C    22.47999954   8.34000015  56.05999756
C    22.77000046   8.94999981  57.30999756
C    21.73999977   9.06000042  58.22000122
C    20.45999908   8.51000023  57.94000244
C    16.34000015   7.51999950  57.06999969
C    15.64000034   7.73000002  58.27999878
C    14.25000000   7.83999968  58.39000320
C    24.15999985   9.35999966  57.72999573
H    24.54310417   8.68601990  58.49620819
H    19.52000046   9.02999973  59.87999725
H    18.43000031   7.55999994  55.30000305
H    20.98999977   7.53999996  54.73999786
H    23.29999924   8.07999992  55.40000153
H    21.84999847   9.59000015  59.15999985
H    13.86999989   8.32999992  59.27000046
H    24.86000061   9.35999966  56.88000107
H    24.23999977  10.36999893  58.15000153
S    13.09000015   7.11999989  54.65999985
C    10.39000034   7.13000011  55.30000305
C    11.68000031   7.32999992  55.72000122
C    12.06999969   7.67000008  57.04999924
C    11.03999996   7.92999983  57.94000244
C     9.71000004   7.55999994  57.61000061
C     8.69000053   7.68000031  58.60000229
C     7.42999983   7.16000032  58.36999893
C     7.11999989   6.65000010  57.08000183
C     8.09000015   6.51999998  56.11000061
C     9.40999985   7.00000000  56.31999969
C    13.50999928   7.57000017  57.22999954
C    14.19999981   7.25000000  56.04000092
C    15.59000015   7.14999962  55.96000290
C     5.71000004   6.19000006  56.77999878
H     5.18402243   6.92921209  56.17583466
H    10.21000004   6.81999969  54.27999878
H    11.32999992   8.31999969  58.90999603
H     8.90999985   8.14000034  59.55999756
H     6.70000029   7.03000021  59.15999985
H     7.90999985   6.25999975  55.06999969
H    16.04999924   6.97000027  54.99000168
H     5.28999996   6.01999998  57.77999878
H     5.84000015   5.17000008  56.38999939
S    17.30999947   8.93999958  53.18000031
C    19.96000099   8.93000031  52.35000229
C    18.63999939   8.67999935  52.04000092
C    18.20000076   8.25000000  50.75000000
C    19.18000031   8.09000015  49.78000259
C    20.52999878   8.39999962  50.04000092
C    21.55999947   8.48999977  49.06999969
C    22.86999893   8.71000004  49.40999985
C    23.29999924   8.93000031  50.73999786
C    22.30999947   9.04999924  51.69000244
C    20.96999931   8.71999931  51.38000107
C    16.75000000   8.23999977  50.66999817
C    16.13000107   8.59000015  51.90000153
C    14.73999977   8.67000008  51.95999908
C    24.70999908   9.35000038  51.11999893
H    25.05295181   8.68553257  51.91307449
H    20.28000069   9.32999992  53.30999756
H    18.96000099   7.82000017  48.75000000
H    21.24000168   8.22000027  48.06000137
H    23.59000015   8.71000004  48.60000229
H    22.53999901   9.39000034  52.70000076
H    14.26000023   8.96000004  52.88000107
H    25.31999969   9.36999989  50.20999908
H    24.77999878  10.40999985  51.39999771
S    13.48999977   7.60999966  48.30999756
C    10.85000038   7.53999996  49.03999710
C    12.10999966   8.00000000  49.34999847
C    12.51000023   8.38999939  50.65999985
C    11.51999950   8.47000027  51.62000275
C    10.21000004   8.02999973  51.31999969
C     9.19000053   8.14999962  52.30999756
C     7.90000010   7.71000004  52.09000015
C     7.55999994   7.26000023  50.79000092
C     8.47999954   7.21000004  49.75999832
C     9.85000038   7.46999979  50.04000092
C    13.96000004   8.38000011  50.83000183
C    14.60999966   7.97999954  49.64000320
C    15.98999977   7.95000029  49.52000046
C     6.12999964   6.83000040  50.54000092
H     5.74702454   7.34772587  49.66057587
H    10.51000023   7.23999977  48.04999924
H    11.69000053   8.67999935  52.67000198
H     9.39999962   8.57999992  53.27999878
H     7.09999990   7.86999989  52.80000305
H     8.22000027   6.90999985  48.75000000
H    16.46000099   7.78999996  48.55999756
H     5.53999996   6.96000004  51.45999908
H     6.15000010   5.75999975  50.31000137
