96

S    17.29999924   9.10000038  59.13000107
C    20.03000069   9.19000053  58.44999695
C    18.73999977   8.82000065  58.13000107
C    18.35000038   8.23000050  56.88999939
C    19.37999916   8.03999996  55.97999954
C    20.72999954   8.30999947  56.31000137
C    21.78999901   8.01000023  55.40999985
C    23.12000084   8.26000023  55.68000031
C    23.45000076   8.93000031  56.88999939
C    22.46999931   9.22999954  57.80000305
C    21.09000015   8.94999981  57.54000092
C    16.90999985   8.01999950  56.76000214
C    16.20000076   8.47000027  57.90000153
C    14.81999969   8.67000008  57.90000153
C    24.86999893   9.18000031  57.34000397
H    25.20351410   8.57683563  58.18443298
H    20.26000023   9.61999989  59.41999817
H    19.11999893   7.42999983  55.12000275
H    21.55999947   7.53999996  54.45999908
H    23.85000038   8.00000000  54.92000198
H    22.79000092   9.56999969  58.77999878
H    14.37000084   9.28999996  58.67000198
H    25.52000046   9.13000011  56.45999908
H    24.84000015  10.21999931  57.67000198
S    13.63000011   7.11000013  54.54000092
C    10.86999989   7.14999962  55.20999908
C    12.18000031   7.50000000  55.47999954
C    12.57999992   8.06999969  56.73999786
C    11.63000011   8.28999996  57.71999741
C    10.27999973   7.94000053  57.50000000
C     9.26999950   8.01999950  58.50000000
C     7.99000025   7.55000019  58.30999756
C     7.69000006   6.80999994  57.12999725
C     8.64000034   6.71999979  56.13999939
C     9.92000008   7.32999992  56.24000168
C    14.01999950   8.15999985  56.86999893
C    14.78000069   7.65999985  55.77999878
C    16.14999962   7.48000050  55.72000122
C     6.26999950   6.42000008  56.79000092
H     5.76489449   7.09584522  56.09992599
H    10.53999996   6.74000025  54.26000214
H    12.02999973   8.60999966  58.68000031
H     9.52999973   8.47000027  59.45000076
H     7.14999962   7.73000002  58.96999741
H     8.34000015   6.26999950  55.20000076
H    16.60000038   7.00999975  54.85000229
H     5.68000031   6.51999998  57.71999741
H     6.05999994   5.45000029  56.33999634
S    17.13999939   8.90999985  53.02000046
C    19.88999939   8.65999985  52.35000229
C    18.55999947   8.48999977  52.04000092
C    18.17000008   8.01999950  50.73999786
C    19.14999962   7.73000002  49.79999924
C    20.50000000   8.02999973  50.06999969
C    21.45999908   7.96000004  49.02000046
C    22.72999954   8.43000031  49.27999878
C    23.12000084   8.98999977  50.52000046
C    22.19000053   9.13000011  51.52000046
C    20.88000107   8.60000038  51.33999634
C    16.72999954   8.00000000  50.54999924
C    16.03999901   8.46000004  51.70000076
C    14.67000008   8.67999935  51.70999908
C    24.57999992   9.36999989  50.65000153
H    24.99457741   8.74813366  51.44341660
H    20.27000046   9.13999939  53.23999786
H    18.84000015   7.28999996  48.85000229
H    21.17000198   7.55999994  48.06000137
H    23.46999931   8.42000008  48.47999954
H    22.36999893   9.59999943  52.48000336
H    14.06000042   9.13000011  52.49000168
H    25.13999939   9.36999989  49.71000290
H    24.63999939  10.44000053  50.91999817
S    13.48000050   7.37999964  48.18999863
C    10.76000023   7.49000025  48.92000198
C    12.07999992   7.76000023  49.20999908
C    12.48000050   8.30999947  50.47000122
C    11.50000000   8.53999996  51.40999603
C    10.14999962   8.15999985  51.19999695
C     9.19999981   8.28999996  52.25000000
C     7.86000013   8.06999969  52.04000092
C     7.46000004   7.71000004  50.72999954
C     8.34999943   7.53999996  49.68999863
C     9.76000023   7.68000031  49.89999771
C    13.93000031   8.28999996  50.58000183
C    14.65000057   7.82999992  49.45000076
C    16.03000069   7.68000031  49.38000107
C     6.01000023   7.40000010  50.40000153
H     5.64561462   7.80725431  49.45688629
H    10.47000027   7.23000002  47.90999985
H    11.84000015   8.88000011  52.37999725
H     9.68000031   8.50000000  53.20999908
H     7.23999977   8.10999966  52.93000031
H     7.88999987   7.30000019  48.74000168
H    16.56999969   7.39000034  48.47999954
H     5.52999973   7.72000027  51.33999634
H     5.89999962   6.30999994  50.34999847
