96

S    17.42000008   8.71000004  59.72000122
C    20.13000107   8.64000034  59.03999710
C    18.81999969   8.50000000  58.64999771
C    18.53000069   8.11999989  57.29999924
C    19.52000046   7.99000025  56.35000229
C    20.86999893   8.14000034  56.73999786
C    22.01000023   7.90999985  55.90000153
C    23.28000069   8.23999977  56.31000137
C    23.52999878   8.90999985  57.52999878
C    22.44999886   9.11999989  58.36000061
C    21.14000130   8.64999962  58.04999924
C    17.09000015   8.00000000  57.15999985
C    16.38000107   8.47999954  58.29000092
C    15.00000000   8.55000019  58.40000153
C    24.93999863   9.06999969  58.06999969
H    25.30413628   8.09183216  58.38415527
H    20.36999893   9.13999939  59.98000336
H    19.27999878   7.82000017  55.30000305
H    21.78999901   7.59999990  54.88999939
H    24.07999992   8.03999996  55.59999847
H    22.67000008   9.35999966  59.40000153
H    14.45000076   8.80000019  59.29999924
H    25.55999947   9.55999947  57.30999756
H    24.97999954   9.81000042  58.88000107
S    13.83999920   7.40999985  54.79999924
C    11.11999989   7.31999969  55.52000046
C    12.42000008   7.63999987  55.84000015
C    12.79999924   8.19999981  57.09999847
C    11.75000000   8.38999939  57.97999954
C    10.39000034   8.19000053  57.65999603
C     9.34000015   8.43000031  58.57999802
C     8.03999996   8.21000004  58.16999817
C     7.67000008   7.72000027  56.88999939
C     8.67999935   7.36999989  56.02000427
C    10.03000069   7.64999962  56.37000275
C    14.25000000   8.25000000  57.25999832
C    14.96000099   7.96999979  56.05999756
C    16.34000015   7.79999971  56.00000000
C     6.28000021   7.21000004  56.59000015
H     5.88261414   7.72802162  55.71716690
H    11.00000000   6.93000031  54.52000046
H    12.06999969   8.71999931  58.96999741
H     9.55999947   8.65999985  59.61999893
H     7.25000000   8.30000019  58.90999603
H     8.39999962   6.80000019  55.13999939
H    16.77999878   7.39000034  55.08999634
H     5.73999977   7.30999994  57.52999878
H     6.39999962   6.15999985  56.29000092
S    17.79000092   9.35999966  53.29999924
C    20.51000214   9.26999950  52.63999939
C    19.19999886   9.09000015  52.25000000
C    18.81999969   8.67000008  50.93999863
C    19.85000038   8.64000034  50.01999664
C    21.19999886   8.82999992  50.38000107
C    22.15999985   8.76000023  49.33000183
C    23.46999931   8.90999985  49.71000290
C    23.84000015   9.34000015  51.00999832
C    22.93000031   9.52999973  52.02000046
C    21.57999992   9.22999954  51.70999908
C    17.36999893   8.52000046  50.81999969
C    16.69000053   9.03999996  51.95000076
C    15.29999924   9.11999989  52.02999878
C    25.26000023   9.63999939  51.43000031
H    25.72793198   8.90265179  52.08227158
H    20.72000122   9.61999989  53.64999771
H    19.67000008   8.30000019  49.00000000
H    21.90999985   8.47999954  48.30999756
H    24.18999863   8.90999985  48.89999771
H    23.23999786   9.70000076  53.04999924
H    14.78000069   9.21000004  52.97000122
H    25.96999931   9.84000015  50.61000061
H    25.17999840  10.60999966  51.93000031
S    14.14000034   8.23000050  48.36000061
C    11.49000072   7.77999973  49.16999817
C    12.79000092   8.09000015  49.50000000
C    13.12999916   8.52999973  50.81999969
C    12.17000008   8.55000019  51.81000137
C    10.81999969   8.34999943  51.45000076
C     9.77000046   8.52000046  52.39999771
C     8.45000076   8.27999973  52.08000183
C     8.10999966   7.85000038  50.77000046
C     9.09000015   7.69000006  49.80999756
C    10.44000053   8.01000023  50.10000229
C    14.55999947   8.78000069  50.89000320
C    15.26999950   8.46000004  49.71000290
C    16.64999962   8.27000046  49.65000153
C     6.71000004   7.39000034  50.45000076
H     6.19939804   8.08498573  49.78338242
H    11.31000042   7.32999992  48.20000076
H    12.53000069   8.82000065  52.80000305
H    10.03000069   8.84000015  53.40999985
H     7.68000031   8.40999985  52.83000183
H     8.88000011   7.16000032  48.88999939
H    17.17000008   8.17000008  48.70999908
H     6.11999989   7.26999998  51.37000275
H     6.76999998   6.37000036  50.06999969
