96

S    17.09000015   8.96000004  59.40999985
C    19.79999924   9.25000000  58.57999802
C    18.51000023   8.82999992  58.34999847
C    18.12000084   8.39999962  57.04000092
C    19.11000061   8.23000050  56.10000229
C    20.45999908   8.60999966  56.26999664
C    21.51000023   8.38000011  55.34000015
C    22.80999947   8.60000038  55.70999908
C    23.13999939   9.11000061  56.98999786
C    22.14999962   9.46000004  57.88000107
C    20.79999924   9.11999989  57.57999802
C    16.69000053   8.18000031  56.84999847
C    16.02000046   8.51000023  58.06000137
C    14.65000057   8.67999935  57.97999954
C    24.59000015   9.39999962  57.29999924
H    24.86068916   9.12218761  58.31864929
H    19.98999977   9.67000008  59.55999756
H    18.92000008   7.76999998  55.13000107
H    21.22999954   7.96000004  54.36999893
H    23.64000130   8.43000031  55.02999878
H    22.50000000   9.94000053  58.79000092
H    14.22999954   9.00000000  58.93000031
H    25.27000046   8.85999966  56.62000275
H    24.79000092  10.47999954  57.28000259
S    13.48999977   7.31999969  54.47999954
C    10.77999973   7.20000029  55.13999939
C    12.05999947   7.57999992  55.48999786
C    12.43000031   8.14999962  56.75000000
C    11.42000008   8.36000061  57.67000198
C    10.06000042   8.14000034  57.34000397
C     8.98999977   8.34999943  58.25000000
C     7.71000004   7.90999985  57.97000122
C     7.50000000   7.20000029  56.76000214
C     8.47000027   6.97000027  55.80999756
C     9.77000046   7.50000000  56.07999802
C    13.86000061   8.36999989  56.86999893
C    14.59000015   7.96000004  55.72000122
C    15.97000027   7.88000011  55.68999863
C     6.11000013   6.65000010  56.59000015
H     5.60592413   7.28186989  55.85873413
H    10.52999973   6.76999998  54.18000031
H    11.64999962   8.69999981  58.68000031
H     9.22999954   8.73000050  59.23999786
H     6.94000006   8.23000050  58.66000366
H     8.38999939   6.37000036  54.91000366
H    16.43000031   7.53000021  54.77000427
H     5.58000040   6.65999985  57.55000305
H     6.03999996   5.59999990  56.30000305
S    13.59000015   4.84000015  51.40999603
C    10.88999939   4.36999989  52.04999924
C    12.22000027   4.21999979  52.36000061
C    12.63000011   3.77999997  53.66000366
C    11.64999962   3.44000006  54.58000183
C    10.27999973   3.63000011  54.31999969
C     9.22999954   3.17000008  55.17000198
C     7.92000008   3.07000017  54.75999832
C     7.55999994   3.63000011  53.50999832
C     8.52000046   4.09999990  52.63999939
C     9.89000034   4.03999996  52.98999786
C    14.07999992   3.81000018  53.81999969
C    14.70999908   4.42999983  52.71999741
C    16.03999901   4.84000015  52.69000244
C     6.11000013   3.95000005  53.22999954
H     5.81078434   3.65078402  52.22549057
H    10.65000057   4.80999994  51.07999802
H    11.94000053   3.37000012  55.63000107
H     9.55999947   2.93000007  56.18000031
H     7.18999958   2.75000000  55.48999786
H     8.19000053   4.69000006  51.79000092
H    16.48999977   5.42000008  51.88999939
H     5.51999998   3.40000010  53.97999573
H     5.89999962   5.01999950  53.36999893
S    17.38999939   3.47000003  56.11000061
C    20.02000046   4.39000034  55.56000137
C    18.68000031   4.32999992  55.26000214
C    18.22000122   4.86999989  54.02000046
C    19.11999893   5.40999985  53.11999893
C    20.50000000   5.42999983  53.43999863
C    21.47000122   5.95000029  52.54000092
C    22.79000092   5.80999947  52.88000107
C    23.32999992   5.15999985  54.02000046
C    22.39999962   4.78999996  54.97000122
C    21.01000023   4.92999983  54.68999863
C    16.79999924   4.59000015  53.83999634
C    16.18000031   3.82999992  54.86999893
C    14.86999989   3.40000010  54.89999771
C    24.80999947   4.90000010  54.15999985
H    25.09361839   5.15525818  55.18103027
H    20.45000076   3.96000004  56.45999908
H    18.86999893   5.97000027  52.22000122
H    21.22999954   6.21000004  51.51000214
H    23.48999977   6.26999950  52.18999863
H    22.65999985   4.33999968  55.91999817
H    14.46000004   2.80999994  55.72000122
H    25.36999893   5.50000000  53.43000031
H    25.00999832   3.84999990  53.95000076
