96

S    16.97999954   9.34000015  59.18000031
C    19.73999977   9.31999969  58.50999832
C    18.43000031   8.97999954  58.22999954
C    18.09000015   8.34999943  56.98999786
C    19.09000015   8.01999950  56.10000229
C    20.43999863   8.32999992  56.37000275
C    21.47000122   8.00000000  55.45000076
C    22.77000046   8.38000011  55.70000076
C    23.12000084   8.90999985  56.97000122
C    22.14999962   9.27999973  57.87000275
C    20.78000069   9.01000023  57.60000229
C    16.64999962   8.34000015  56.72999954
C    15.92000008   8.82000065  57.84999847
C    14.52999973   8.88000011  57.81000137
C    24.56000137   9.30999947  57.16999817
H    25.02862930   8.72066498  57.95814514
H    19.85999870   9.84000015  59.45999908
H    18.88000107   7.49000025  55.17000198
H    21.18000031   7.62000036  54.47000122
H    23.46999931   8.21000004  54.88999939
H    22.36000061   9.72999954  58.83999634
H    13.99000072   9.42000008  58.59000397
H    25.10000038   9.39999962  56.22000122
H    24.60000038  10.36000061  57.47000122
S    13.50000000   7.28999996  54.31000137
C    10.85999966   7.26999998  55.00000000
C    12.13000107   7.65999985  55.37000275
C    12.36999989   8.47999954  56.52000046
C    11.28999901   8.76999950  57.31999969
C    10.01000023   8.21000004  57.11000061
C     9.01000023   8.46000004  58.09000015
C     7.71000004   8.09000015  57.81999969
C     7.46000004   7.42000008  56.59999847
C     8.40999985   7.14999962  55.65000153
C     9.77999973   7.48000050  55.89000320
C    13.81999969   8.56000042  56.65000153
C    14.53999996   8.00000000  55.56000137
C    15.93000031   7.97999954  55.59000015
C     6.00000000   7.07000017  56.38999939
H     5.55362082   7.62974548  55.56809235
H    10.76000023   6.74000025  54.06000137
H    11.52999973   9.36999989  58.18999863
H     9.17000008   9.01000023  59.01000214
H     6.97000027   8.48999977  58.50999832
H     8.06999969   6.57000017  54.79999924
H    16.47999954   7.55000019  54.75999832
H     5.52999973   7.34000015  57.34000397
H     5.89999962   6.00000000  56.16000366
S    17.75000000   9.59000015  53.31999969
C    20.48000145   9.48999977  52.67000198
C    19.18000031   9.15000057  52.36999893
C    18.84000015   8.60999966  51.09000397
C    19.81999969   8.43000031  50.13000107
C    21.15999985   8.78999996  50.40999985
C    22.20999908   8.59000015  49.47000122
C    23.51000023   8.76999950  49.88999939
C    23.81000137   9.34000015  51.14999771
C    22.84000015   9.57999992  52.09999847
C    21.50000000   9.28999996  51.70999908
C    17.39999962   8.56999969  50.87999725
C    16.68000031   9.09000015  51.98999786
C    15.31000042   9.30999947  51.95999908
C    25.22000122   9.70000076  51.58000183
H    25.51127052   9.28795815  52.54616928
H    20.81999969  10.01999950  53.55999756
H    19.63999939   8.03999996  49.13000107
H    22.04999924   8.14999962  48.48999786
H    24.33000183   8.57999992  49.20000076
H    22.96999931  10.07999992  53.04999924
H    14.73999977   9.63999939  52.83000183
H    25.95000076   9.30000019  50.86000061
H    25.38999939  10.77999973  51.56000137
S    14.22999954   8.31999969  48.29000092
C    11.50000000   8.30999947  48.86000061
C    12.77999973   8.60000038  49.27000046
C    13.15000057   8.98999977  50.59000015
C    12.10000038   9.02999973  51.47999573
C    10.77999973   8.60999966  51.18999863
C     9.76000023   8.52000046  52.18000031
C     8.53999996   7.96999979  51.86999893
C     8.18000031   7.73999977  50.51000214
C     9.13000011   7.86999989  49.52999878
C    10.47000027   8.25000000  49.82999802
C    14.60000038   9.02999973  50.79000092
C    15.31999969   8.55000019  49.66999817
C    16.67000008   8.25000000  49.72999954
C     6.76999998   7.34000015  50.13000107
H     6.25933361   8.02798080  49.45620346
H    11.33999920   8.01000023  47.83000183
H    12.32999992   9.34000015  52.50000000
H    10.07999992   8.82000065  53.16999817
H     7.77999973   7.83999968  52.63000107
H     8.97000027   7.55999994  48.50000000
H    17.35000038   7.90999985  48.95000076
H     6.19999981   7.26999998  51.05999756
H     6.80000019   6.38000011  49.59999847
