96

S    16.92000008   8.60999966  59.43000031
C    19.67000008   8.56000042  58.88000107
C    18.38000107   8.36000061  58.44999695
C    18.02999878   7.86000013  57.15999985
C    19.05999947   7.55999994  56.29000092
C    20.42000008   7.86999989  56.58000183
C    21.45000076   7.78999996  55.59999847
C    22.73999977   8.13000011  55.94999695
C    23.02999878   8.55000019  57.28000259
C    22.03000069   8.64000034  58.22999954
C    20.68000031   8.32999992  57.90999985
C    16.60000038   7.60999966  56.98999786
C    15.86999989   8.05000019  58.11999893
C    14.48999977   7.96000004  58.25000000
C    24.36000061   9.13999939  57.65999603
H    24.90719604   8.42225075  58.27115631
H    19.86999893   9.13000011  59.79000092
H    18.92000008   7.16000032  55.28999710
H    21.18000031   7.40000010  54.62999725
H    23.51000023   8.01000023  55.19000244
H    22.32000160   9.04999924  59.19000244
H    14.01000023   8.17000008  59.20000076
H    25.09000015   9.38000011  56.88000107
H    24.27999878  10.10000038  58.18999863
S    13.45999908   6.51999998  54.69999695
C    10.76000023   6.17999983  55.43000031
C    12.02999973   6.63000011  55.73999786
C    12.35000038   7.21000004  57.01000214
C    11.31000042   7.40000010  57.88999939
C     9.96000004   7.07000017  57.61000061
C     8.85000038   7.48000050  58.40000153
C     7.57000017   7.07999992  58.06999969
C     7.35000038   6.39999962  56.84999847
C     8.38000011   6.01999998  56.02000427
C     9.71000004   6.38000011  56.37000275
C    13.78000069   7.46999979  57.14000320
C    14.52000046   7.11999989  55.98999786
C    15.90999985   7.11999989  55.86999893
C     5.91000032   6.05000019  56.52000046
H     5.55432987   6.64752626  55.68061829
H    10.52999973   5.63000011  54.52999878
H    11.54999924   7.86999989  58.82999802
H     8.94999981   7.96000004  59.36000061
H     6.78999996   7.39000034  58.76999664
H     8.06999969   5.49000025  55.13000107
H    16.34000015   6.76000023  54.93999863
H     5.31000042   6.35999966  57.38999939
H     5.78000021   4.98000002  56.32999802
S    13.78999901   4.76000023  51.62000275
C    11.17000008   3.84999990  52.12999725
C    12.51000023   3.88000011  52.47000122
C    12.97999954   3.17000008  53.61999893
C    12.02999973   2.70000005  54.51000214
C    10.65000057   2.66000009  54.20999908
C     9.65999985   2.16000009  55.10000229
C     8.31999969   2.38000011  54.88999939
C     7.90999985   2.82999992  53.60000229
C     8.82000065   3.28999996  52.68000031
C    10.21000004   3.24000001  52.97000122
C    14.40999985   3.38000011  53.79000092
C    15.01000023   4.15999985  52.77000046
C    16.28000069   4.69999981  52.88999939
C     6.46000004   3.25000000  53.54000092
H     6.01213217   2.92298532  52.60161209
H    10.88999939   4.33999968  51.19999695
H    12.30000019   2.29999995  55.47999954
H     9.98000050   1.81999993  56.09000397
H     7.65999985   2.20000005  55.72000122
H     8.59000015   3.93000007  51.83000183
H    16.77000046   5.00000000  51.97000122
H     5.84999990   2.80999994  54.34000015
H     6.39999962   4.32000017  53.77999878
S    17.60000038   3.17999983  56.31000137
C    20.30999947   3.88000011  55.68999863
C    18.96000099   3.88000011  55.40999985
C    18.50000000   4.48000002  54.19000244
C    19.37999916   5.07999992  53.30999756
C    20.76000023   5.13000011  53.61000061
C    21.68000031   5.61999989  52.63999939
C    23.03999901   5.49000025  52.81000137
C    23.47999954   4.96000004  54.05000305
C    22.63999939   4.46999979  55.01999664
C    21.22999954   4.55000019  54.84000397
C    17.05999947   4.36999989  54.00000000
C    16.45000076   3.60000014  55.02999878
C    15.15999985   3.09999990  54.93999863
C    24.93000031   4.55999994  54.18000031
H    25.20060349   4.62409019  55.23392868
H    20.59999847   3.19000006  56.46999741
H    19.03000069   5.42000008  52.34000397
H    21.37000084   5.84000015  51.62000275
H    23.62999916   5.63000011  51.90999985
H    23.00000000   3.73000002  55.72999954
H    14.63000107   2.61000013  55.75000000
H    25.43999863   5.29999971  53.54999924
H    25.06000137   3.52999973  53.82999802
