96

S    16.79000092   8.43999958  59.40999985
C    19.50000000   8.34999943  58.81999969
C    18.20999908   8.09000015  58.40999985
C    17.87999916   7.82999992  57.04000092
C    18.89000130   7.76999998  56.10000229
C    20.25000000   7.97999954  56.45000076
C    21.31999969   7.88999987  55.52000046
C    22.63000107   8.01000023  55.93000031
C    22.86000061   8.43000031  57.27000427
C    21.87000084   8.46000004  58.22000122
C    20.52000046   8.23000050  57.84000015
C    16.44000053   7.86999989  56.88000107
C    15.70000076   8.30000019  58.02000046
C    14.32000065   8.43000031  58.02000046
C    24.27000046   8.84000015  57.62000275
H    24.70418549   8.19227886  58.38160706
H    19.80999947   8.78999996  59.77000427
H    18.59000015   7.48000050  55.10000229
H    21.14000130   7.86999989  54.45000076
H    23.51000023   8.06999969  55.28999710
H    22.10000038   8.67999935  59.26000214
H    13.75000000   8.64999962  58.92000198
H    24.86999893   8.78999996  56.70000076
H    24.30000114   9.86999989  58.01000214
S    13.17999935   7.44999981  54.40000153
C    10.47000027   7.17999983  55.13000107
C    11.75000000   7.55000019  55.45000076
C    12.15000057   7.97999954  56.75000000
C    11.23000050   8.02999973  57.77999878
C     9.85999966   7.82999992  57.45999908
C     8.80999947   8.01999950  58.40000153
C     7.51999950   7.67000008  58.08000183
C     7.17999983   7.18999958  56.79000092
C     8.14000034   7.11999989  55.80999756
C     9.48999977   7.46000004  56.11999893
C    13.60000038   8.09000015  56.86999893
C    14.34000015   7.71000004  55.72999954
C    15.71000004   7.49000025  55.75000000
C     5.77000046   6.70000029  56.52999878
H     5.42744637   7.12819290  55.58797455
H    10.14999962   6.80000019  54.15999985
H    11.50000000   8.11999989  58.82999802
H     9.06000042   8.22000027  59.43999863
H     6.71000004   7.64999962  58.81000137
H     7.92000008   6.65000010  54.86000061
H    16.21000099   7.09999990  54.86000061
H     5.10999966   6.81999969  57.39999771
H     5.86000013   5.60999966  56.46999741
S    13.83999920   5.52999973  51.73999786
C    11.14999962   4.97000027  52.31999969
C    12.46999931   4.88000011  52.68000031
C    12.90999985   4.17000008  53.83999634
C    11.94000053   3.61000013  54.65999985
C    10.57999992   3.63999987  54.29000092
C     9.57999992   2.99000001  55.06999969
C     8.23999977   2.92000008  54.75000000
C     7.82999992   3.61999989  53.59000397
C     8.78000069   4.19000006  52.77000046
C    10.17000008   4.28999996  53.08000183
C    14.35999966   4.15999985  53.95000076
C    15.00000000   4.92999983  52.94000244
C    16.32999992   5.29999971  52.97000122
C     6.37000036   3.96000004  53.34999847
H     5.89116287   3.41684127  52.53526306
H    10.82999992   5.50000000  51.42000198
H    12.20999908   2.94999981  55.47999954
H     9.90999985   2.39999986  55.91999817
H     7.46999979   2.50999975  55.40000153
H     8.59000015   4.88000011  51.95000076
H    16.82999992   5.71000004  52.09000015
H     5.82000017   3.70000005  54.27000046
H     6.23000050   5.01999950  53.09999847
S    17.71000099   3.37000012  56.16000366
C    20.36000061   3.82999992  55.52000046
C    19.04000092   4.07999992  55.22999573
C    18.60999870   4.90000010  54.13999939
C    19.56999969   5.42999983  53.29999924
C    20.95000076   5.21000004  53.53000259
C    21.93000031   5.73999977  52.64999771
C    23.26000023   5.58000040  52.94000244
C    23.64000130   4.71000004  53.99000168
C    22.72999954   4.25000000  54.92000198
C    21.34000015   4.40000010  54.65999985
C    17.14999962   4.88999987  54.02000046
C    16.54999924   4.09999990  55.02999878
C    15.21999931   3.70000005  54.95999908
C    25.07999802   4.26000023  54.13000107
H    25.48549080   4.70105934  55.04057312
H    20.65999985   3.21000004  56.36000061
H    19.37000084   6.14000034  52.50000000
H    21.59000015   6.32000017  51.79000092
H    24.06999969   6.00000000  52.32999802
H    23.15999985   3.61000013  55.68000031
H    14.72000027   3.07999992  55.70000076
H    25.79000092   4.48999977  53.33000183
H    24.94999886   3.17000008  54.26000214
