96

S    16.40999985   8.56999969  59.22999954
C    19.07999992   8.71999931  58.56999969
C    17.84000015   8.23000050  58.22999954
C    17.54999924   7.57000017  57.00000000
C    18.53999901   7.59999990  56.04000092
C    19.89999962   7.86999989  56.35000229
C    20.95000076   7.63999987  55.41999817
C    22.23999977   7.96000004  55.79999924
C    22.50999832   8.55000019  57.05999756
C    21.47999954   8.73000050  57.95000076
C    20.12000084   8.39999962  57.67000198
C    16.10999870   7.44000006  56.79000092
C    15.39999962   8.05999947  57.84999847
C    14.04000092   8.34000015  57.80000305
C    23.92999840   8.96000004  57.37999725
H    24.37839127   8.49025631  58.25543213
H    19.32999992   9.27999973  59.47000122
H    18.20000076   7.20000029  55.08999634
H    20.69000053   7.25000000  54.43999863
H    22.98000145   8.06999969  55.00999832
H    21.76000214   9.21000004  58.88000107
H    13.60000038   8.55000019  58.76999664
H    24.54999924   8.67000008  56.52999878
H    23.98999977  10.06000042  57.43000031
S    12.86999893   6.83000040  54.31999969
C    10.18000031   6.67000008  54.97000122
C    11.44000053   7.09999990  55.33000183
C    11.85999966   7.65999985  56.56999969
C    10.77999973   7.99000025  57.36999893
C     9.43000031   7.65999985  57.06999969
C     8.38000011   7.92999983  57.98999786
C     7.11000013   7.53000021  57.63000107
C     6.77999973   6.76999998  56.47999573
C     7.77999973   6.56000042  55.56000137
C     9.11000061   7.00000000  55.84000015
C    13.30000019   7.83999968  56.72999954
C    13.99000072   7.28999996  55.61999893
C    15.36999893   7.17000008  55.63999939
C     5.36999989   6.32999992  56.13999939
H     4.75769949   7.03485727  55.57753754
H     9.92000008   6.10000038  54.08000183
H    10.95999908   8.45000076  58.33000183
H     8.56999969   8.48999977  58.89999771
H     6.35999966   7.96999979  58.27999878
H     7.57999992   6.25999975  54.54000092
H    15.92000008   7.05999947  54.69999695
H     4.80999994   6.06999969  57.04999924
H     5.38000011   5.36999989  55.63000107
S    16.86000061   8.97999954  53.22000122
C    19.61000061   8.98999977  52.61000061
C    18.30999947   8.80000019  52.19999695
C    18.00000000   8.14999962  50.96000290
C    19.06999969   7.88000011  50.13000107
C    20.39999962   8.21000004  50.45999908
C    21.38000107   8.14000034  49.41999817
C    22.60999870   8.64000034  49.73999786
C    22.98000145   9.22999954  50.97999954
C    22.04000092   9.22999954  51.97000122
C    20.71000099   8.76000023  51.75000000
C    16.57999992   7.94000053  50.72999954
C    15.86999989   8.51000023  51.81999969
C    14.48999977   8.59000015  51.81999969
C    24.40999985   9.68999958  51.16000366
H    24.94283676   8.94402790  51.74967194
H    19.76000023   9.43000031  53.59000397
H    18.90999985   7.60999966  49.09000015
H    21.22999954   7.67000008  48.44999695
H    23.38000107   8.43999958  49.00000000
H    22.15999985   9.72999954  52.93000031
H    14.04000092   8.89999962  52.75000000
H    24.82000160   9.92000008  50.17000198
H    24.27999878  10.62000084  51.72000122
S    13.40000057   6.93000031  48.37999725
C    10.67000008   6.94000006  49.02999878
C    11.97000027   7.23000002  49.38000107
C    12.31999969   7.86999989  50.61000061
C    11.31999969   8.19999981  51.51000214
C    10.00000000   7.79999971  51.20999908
C     8.97000027   7.96999979  52.18999863
C     7.64999962   7.69000006  51.95999908
C     7.30000019   7.23000002  50.65999985
C     8.26000023   6.93000031  49.72000122
C     9.63000011   7.21000004  49.95999908
C    13.76000023   8.05999947  50.73999786
C    14.48999977   7.57999992  49.61999893
C    15.86999989   7.51999950  49.59000015
C     5.86999989   6.81999969  50.45000076
H     5.43760872   7.32327557  49.58521652
H    10.36000061   6.32000017  48.18999863
H    11.52999973   8.82000065  52.38999939
H     9.35000038   8.43999958  53.09999847
H     6.97000027   7.75000000  52.81000137
H     8.06999969   6.39999962  48.79000092
H    16.46000099   7.26999998  48.72000122
H     5.13999987   7.00000000  51.25000000
H     5.80999947   5.75999975  50.14999771
