96

S    17.42000008   8.71000004  59.72000122
C    20.13000107   8.64000034  59.03999710
C    18.81999969   8.50000000  58.64999771
C    18.53000069   8.11999989  57.29999924
C    19.52000046   7.99000025  56.35000229
C    20.86999893   8.14000034  56.73999786
C    22.01000023   7.90999985  55.90000153
C    23.28000069   8.23999977  56.31000137
C    23.52999878   8.90999985  57.52999878
C    22.44999886   9.11999989  58.36000061
C    21.14000130   8.64999962  58.04999924
C    17.09000015   8.00000000  57.15999985
C    16.38000107   8.47999954  58.29000092
C    15.00000000   8.55000019  58.40000153
C    24.93999863   9.06999969  58.06999969
H    25.30413628   8.09183216  58.38415527
H    20.36999893   9.13999939  59.98000336
H    19.27999878   7.82000017  55.30000305
H    21.78999901   7.59999990  54.88999939
H    24.07999992   8.03999996  55.59999847
H    22.67000008   9.35999966  59.40000153
H    14.45000076   8.80000019  59.29999924
H    25.55999947   9.55999947  57.30999756
H    24.97999954   9.81000042  58.88000107
S    13.83999920   7.40999985  54.79999924
C    11.11999989   7.31999969  55.52000046
C    12.42000008   7.63999987  55.84000015
C    12.79999924   8.19999981  57.09999847
C    11.75000000   8.38999939  57.97999954
C    10.39000034   8.19000053  57.65999603
C     9.34000015   8.43000031  58.57999802
C     8.03999996   8.21000004  58.16999817
C     7.67000008   7.72000027  56.88999939
C     8.67999935   7.36999989  56.02000427
C    10.03000069   7.64999962  56.37000275
C    14.25000000   8.25000000  57.25999832
C    14.96000099   7.96999979  56.05999756
C    16.34000015   7.79999971  56.00000000
C     6.28000021   7.21000004  56.59000015
H     5.88261414   7.72802162  55.71716690
H    11.00000000   6.93000031  54.52000046
H    12.06999969   8.71999931  58.96999741
H     9.55999947   8.65999985  59.61999893
H     7.25000000   8.30000019  58.90999603
H     8.39999962   6.80000019  55.13999939
H    16.77999878   7.39000034  55.08999634
H     5.73999977   7.30999994  57.52999878
H     6.39999962   6.15999985  56.29000092
S    13.68000031   5.55000019  51.65000153
C    11.03999996   4.96000004  52.18999863
C    12.35999966   4.65999985  52.43000031
C    12.86999893   3.86999989  53.50999832
C    11.90000057   3.38000011  54.36000061
C    10.52000046   3.65000010  54.20000076
C     9.55999947   3.03999996  55.05000305
C     8.23999977   3.40000010  54.93000031
C     7.81000042   4.05999994  53.75000000
C     8.67999935   4.69999981  52.90000153
C    10.06999969   4.48999977  53.11999893
C    14.27999973   4.09000015  53.80000305
C    14.85999966   4.97000027  52.84999847
C    16.20000076   5.33999968  52.77999878
C     6.34000015   4.07000017  53.39000320
H     6.13469315   3.41868162  52.54045486
H    10.76000023   5.59000015  51.35000229
H    12.15999985   2.77999997  55.21999741
H     9.96000004   2.34999990  55.79000092
H     7.42999983   2.94000006  55.48999786
H     8.39999962   5.38000011  52.09999847
H    16.61000061   5.78999996  51.88000107
H     5.84000015   3.68999982  54.29000092
H     6.00000000   5.09000015  53.18000031
S    17.68000031   3.48000002  56.00000000
C    20.29000092   4.13000011  55.33000183
C    18.95000076   4.32000017  55.10000229
C    18.45999908   5.03000021  53.95999908
C    19.36000061   5.73999977  53.18999863
C    20.76000023   5.59999990  53.37999725
C    21.75000000   6.11000013  52.49000168
C    23.08000183   5.79999971  52.62000275
C    23.52000046   4.88000011  53.61000061
C    22.57999802   4.33999968  54.47000122
C    21.21000099   4.69999981  54.40999985
C    17.02000046   4.86000013  53.81000137
C    16.47999954   4.00000000  54.79999924
C    15.13000011   3.67000008  54.82999802
C    24.96999931   4.50000000  53.75999832
H    25.39035225   4.89185476  54.68620300
H    20.69999886   3.55999994  56.17000198
H    19.02000046   6.47000027  52.44999695
H    21.44000053   6.78999996  51.70000076
H    23.82999802   6.17999983  51.93999863
H    22.79999924   3.71000004  55.31999969
H    14.73999977   3.15000010  55.70000076
H    25.46999931   4.94000006  52.88000107
H    25.03000069   3.40999985  53.68999863
