96

S    16.69000053   8.65999985  59.47000122
C    19.42000008   8.53999996  58.81999969
C    18.12000084   8.17000008  58.54000092
C    17.72999954   7.60999966  57.28000259
C    18.71000099   7.46999979  56.31000137
C    20.03000069   7.94000053  56.52999878
C    21.04000092   7.90000010  55.52999878
C    22.34000015   8.21000004  55.83000183
C    22.70999908   8.76999950  57.08000183
C    21.76000214   8.76999950  58.08000183
C    20.43000031   8.34000015  57.84999847
C    16.28999901   7.63000011  57.04999924
C    15.60999966   8.26000023  58.11999893
C    14.22000027   8.38000011  58.20999908
C    24.11999893   9.19000053  57.43999863
H    24.57036400   8.53232479  58.18346024
H    19.79999924   9.00000000  59.72999954
H    18.53000069   7.18999958  55.27000046
H    20.89999962   7.50999975  54.52999878
H    23.13999939   8.13000011  55.08999634
H    22.07999992   9.10000038  59.06999969
H    13.63000011   8.73000050  59.03999710
H    24.70999908   9.04999924  56.52000046
H    24.13999939  10.24000072  57.77000046
S    13.12000084   7.30999994  54.52999878
C    10.38000011   7.11999989  55.20000076
C    11.67000008   7.44999981  55.54000092
C    12.09000015   7.90999985  56.83000183
C    11.05000019   8.05000019  57.74000168
C     9.71000004   7.67000008  57.54000092
C     8.60999966   7.79999971  58.44999695
C     7.31999969   7.55000019  58.06000137
C     7.07999992   7.09000015  56.72999954
C     8.06999969   6.89000034  55.79999924
C     9.38000011   7.27999973  56.19999695
C    13.52000046   8.10000038  57.02999878
C    14.21000004   7.65999985  55.87999725
C    15.59000015   7.50999975  55.84000015
C     5.65000010   6.74000025  56.38999939
H     5.30113077   7.44485855  55.63530350
H    10.19999981   6.77999973  54.18000031
H    11.39000034   8.46000004  58.68999863
H     8.73999977   8.13000011  59.47999954
H     6.50000000   7.69999981  58.75999832
H     7.85000038   6.39999962  54.86000061
H    16.13999939   7.40000010  54.91000366
H     5.05000019   6.77999973  57.30999756
H     5.59000015   5.65999985  56.18999863
S    17.47999954   8.92000008  53.41999817
C    20.12000084   9.27999973  52.63000107
C    18.82999992   8.94999981  52.28000259
C    18.43000031   8.55000019  50.96000290
C    19.40000153   8.27000046  50.01999664
C    20.73999786   8.53999996  50.35999680
C    21.78999901   8.55000019  49.40000153
C    23.09999847   8.90999985  49.64000320
C    23.45000076   9.40999985  50.91999817
C    22.44999886   9.53999996  51.86000061
C    21.11999893   9.11000061  51.63000107
C    16.98999977   8.38999939  50.86000061
C    16.32999992   8.67999935  52.08000183
C    14.96999931   8.90999985  52.12999725
C    24.87999916   9.76000023  51.25000000
H    25.34999466   9.10485554  51.98347855
H    20.45000076   9.67000008  53.59000397
H    19.04000092   7.96000004  49.03999710
H    21.57999992   8.36000061  48.34999847
H    23.81999969   9.01000023  48.82999802
H    22.77000046   9.85999966  52.84999847
H    14.52000046   9.19000053  53.08000183
H    25.43000031   9.90999985  50.31000137
H    24.86999893  10.75000000  51.72000122
S    13.80000019   7.85000038  48.46000290
C    11.13000011   7.55000019  49.22999954
C    12.41000080   7.92000008  49.55999756
C    12.76999950   8.40999985  50.86000061
C    11.71000004   8.69000053  51.70999908
C    10.39000034   8.31999969  51.38000107
C     9.30000019   8.48999977  52.28000259
C     7.99000025   8.23999977  51.95000076
C     7.64999962   7.72000027  50.68000031
C     8.67000008   7.49000025  49.79000092
C    10.01999950   7.79999971  50.08999634
C    14.21000004   8.59000015  51.00000000
C    14.88999939   8.22000027  49.80999756
C    16.27000046   8.05000019  49.71000290
C     6.19000006   7.42999983  50.40999985
H     5.88521862   7.86945248  49.46021652
H    11.10999966   6.96000004  48.31999969
H    11.94000053   9.15000057  52.67000198
H     9.47000027   8.85999966  53.29000092
H     7.14999962   8.50000000  52.58999634
H     8.48999977   7.16000032  48.76999664
H    16.72999954   7.78999996  48.75999832
H     5.59000015   7.88000011  51.20999908
H     6.01999998   6.34000015  50.43000031
