96

S    17.29999924   9.10000038  59.13000107
C    20.03000069   9.19000053  58.44999695
C    18.73999977   8.82000065  58.13000107
C    18.35000038   8.23000050  56.88999939
C    19.37999916   8.03999996  55.97999954
C    20.72999954   8.30999947  56.31000137
C    21.78999901   8.01000023  55.40999985
C    23.12000084   8.26000023  55.68000031
C    23.45000076   8.93000031  56.88999939
C    22.46999931   9.22999954  57.80000305
C    21.09000015   8.94999981  57.54000092
C    16.90999985   8.01999950  56.76000214
C    16.20000076   8.47000027  57.90000153
C    14.81999969   8.67000008  57.90000153
C    24.86999893   9.18000031  57.34000397
H    25.20351410   8.57683563  58.18443298
H    20.26000023   9.61999989  59.41999817
H    19.11999893   7.42999983  55.12000275
H    21.55999947   7.53999996  54.45999908
H    23.85000038   8.00000000  54.92000198
H    22.79000092   9.56999969  58.77999878
H    14.37000084   9.28999996  58.67000198
H    25.52000046   9.13000011  56.45999908
H    24.84000015  10.21999931  57.67000198
S    13.63000011   7.11000013  54.54000092
C    10.86999989   7.14999962  55.20999908
C    12.18000031   7.50000000  55.47999954
C    12.57999992   8.06999969  56.73999786
C    11.63000011   8.28999996  57.71999741
C    10.27999973   7.94000053  57.50000000
C     9.26999950   8.01999950  58.50000000
C     7.99000025   7.55000019  58.30999756
C     7.69000006   6.80999994  57.12999725
C     8.64000034   6.71999979  56.13999939
C     9.92000008   7.32999992  56.24000168
C    14.01999950   8.15999985  56.86999893
C    14.78000069   7.65999985  55.77999878
C    16.14999962   7.48000050  55.72000122
C     6.26999950   6.42000008  56.79000092
H     5.76489449   7.09584522  56.09992599
H    10.53999996   6.74000025  54.26000214
H    12.02999973   8.60999966  58.68000031
H     9.52999973   8.47000027  59.45000076
H     7.14999962   7.73000002  58.96999741
H     8.34000015   6.26999950  55.20000076
H    16.60000038   7.00999975  54.85000229
H     5.68000031   6.51999998  57.71999741
H     6.05999994   5.45000029  56.33999634
S    13.92000008   5.36000013  51.44000244
C    11.25000000   4.86000013  52.05999756
C    12.56999969   4.59999990  52.29999924
C    13.02000046   3.91999984  53.48999786
C    12.05000019   3.54999995  54.40999985
C    10.67000008   3.74000025  54.15000153
C     9.76000023   3.25000000  55.13000107
C     8.39999962   3.37000012  54.93000031
C     7.99000025   3.98000002  53.72000122
C     8.84000015   4.55999994  52.81000137
C    10.25000000   4.33999968  52.91999817
C    14.46000004   3.98999977  53.68000031
C    15.06000042   4.78999996  52.68000031
C    16.42000008   5.07999992  52.68000031
C     6.51999998   4.28999996  53.55999756
H     6.06640863   3.90728211  52.64573288
H    11.03999996   5.71000004  51.40999603
H    12.32999992   3.31999993  55.43000031
H    10.18000031   2.71000004  55.97000122
H     7.73000002   3.03999996  55.72000122
H     8.51000023   5.26000023  52.04999924
H    16.79999924   5.73000002  51.90000153
H     5.93999958   3.86000013  54.38999939
H     6.48000002   5.38000011  53.56999969
S    17.68000031   3.52999973  56.10000229
C    20.36000061   4.03999996  55.47999954
C    19.03000069   4.21000004  55.18000031
C    18.60999870   4.78999996  53.94000244
C    19.59000015   5.26999998  53.09000015
C    20.96999931   5.13999987  53.36999893
C    21.94000053   5.29999971  52.34000397
C    23.28000069   5.05000019  52.56000137
C    23.67000198   4.72000027  53.88000107
C    22.76000023   4.33999968  54.82999802
C    21.37000084   4.55999994  54.61999893
C    17.15999985   4.72000027  53.81000137
C    16.52000046   3.96000004  54.81999969
C    15.21000004   3.50000000  54.75000000
C    25.13999939   4.44999981  54.13000107
H    25.49777222   4.78630590  55.10313797
H    20.59000015   3.40000010  56.32999802
H    19.19000053   5.59999990  52.12999725
H    21.51000023   5.71000004  51.43000031
H    24.04999924   5.19000006  51.79999924
H    23.12000084   3.77999997  55.68999863
H    14.80999947   2.96999979  55.61000061
H    25.65000153   5.05000019  53.36000061
H    25.31999969   3.37000012  53.99000168
