96

S    16.69000053   8.90999985  59.20000076
C    19.43000031   8.50000000  58.67000198
C    18.12000084   8.45000076  58.26000214
C    17.71999931   7.99000025  56.95999908
C    18.68999863   7.72000027  56.00999832
C    20.03000069   8.03999996  56.32999802
C    21.00000000   8.11999989  55.28999710
C    22.32999992   8.27000046  55.59999847
C    22.72999954   8.64999962  56.90999985
C    21.77999878   8.71999931  57.90000153
C    20.43000031   8.30999947  57.69000244
C    16.28000069   7.92000008  56.81000137
C    15.55999947   8.36000061  57.95000076
C    14.18000031   8.51000023  58.01000214
C    24.13000107   9.19000053  57.15000153
H    24.60605049   8.60737038  57.93868256
H    19.69000053   8.84000015  59.66999817
H    18.34000015   7.46999979  55.00999832
H    20.62000084   7.94000053  54.29000092
H    23.09999847   8.22000027  54.82999802
H    21.97000122   9.17000008  58.87000275
H    13.71000099   8.84000015  58.93000031
H    24.61999893   9.15000057  56.18000031
H    24.02000046  10.22999954  57.45999908
S    13.04999924   7.46000004  54.38000107
C    10.36000061   7.30000019  54.99000168
C    11.63000011   7.53000021  55.44000244
C    11.97000027   7.96000004  56.77000046
C    10.92000008   8.01000023  57.67000198
C     9.57999992   7.78999996  57.25000000
C     8.45000076   7.95000029  58.09000015
C     7.13000011   7.75000000  57.77000046
C     6.88000011   7.23999977  56.46999741
C     7.92000008   7.07999992  55.59000015
C     9.28999996   7.32999992  55.91999817
C    13.40000057   8.18000031  56.88999939
C    14.14000034   7.77999973  55.75000000
C    15.52000046   7.65999985  55.66999817
C     5.52999973   6.65999985  56.10000229
H     4.93375587   7.36271620  55.51795197
H    10.18000031   7.05999947  53.94000244
H    11.13999939   8.17000008  58.72000122
H     8.75000000   8.23000050  59.09999847
H     6.32000017   8.10999966  58.40000153
H     7.69000006   6.70000029  54.59999847
H    15.85000038   7.11000013  54.79000092
H     4.86999989   6.53999996  56.97000122
H     5.68000031   5.77000046  55.47999954
S    13.42000008   5.46999979  51.52999878
C    10.77000046   4.75000000  52.06999969
C    12.10000038   4.69000006  52.43000031
C    12.56000042   4.00000000  53.59000397
C    11.57999992   3.55999994  54.47000122
C    10.19999981   3.65000010  54.18000031
C     9.19999981   3.19000006  55.07999802
C     7.86000013   3.35999990  54.82999802
C     7.44000006   4.02999973  53.63999939
C     8.38000011   4.44999981  52.72999573
C     9.77000046   4.28999996  52.95999908
C    14.00000000   4.11999989  53.73000336
C    14.60000038   4.94000006  52.74000168
C    15.95000076   5.28999996  52.80000305
C     6.00000000   4.07000017  53.18999863
H     5.63111448   3.53086019  52.31744385
H    10.38000011   5.18000031  51.14999771
H    11.79999924   3.10999990  55.43000031
H     9.53999996   2.69000006  55.98999786
H     7.09000015   3.05000019  55.52999878
H     8.10999966   4.84000015  51.75000000
H    16.36000061   5.80999947  51.95000076
H     5.46000004   3.84999990  54.10999680
H     5.79999971   5.14999962  53.09999847
S    17.28999901   3.40999985  56.05999756
C    19.90999985   3.86999989  55.27000046
C    18.57999992   4.19999981  55.13999939
C    18.12000084   5.03000021  54.06999969
C    19.02000046   5.60999966  53.20000076
C    20.40999985   5.40000010  53.40999985
C    21.32999802   6.01000023  52.51999664
C    22.67999840   5.80999947  52.72999573
C    23.15999985   4.94000006  53.74000168
C    22.27000046   4.36999989  54.61999893
C    20.86000061   4.46000004  54.40000153
C    16.68000031   4.90999985  53.94000244
C    16.09000015   4.05999994  54.92000198
C    14.78000069   3.63000011  54.79000092
C    24.61999893   4.57999992  53.88999939
H    25.05225372   5.18940878  54.68364716
H    20.15999985   3.40000010  56.22000122
H    18.75000000   6.17000008  52.30999756
H    20.94000053   6.58999968  51.69000244
H    23.35000038   6.26999950  52.02000046
H    22.57999802   3.88999987  55.54999924
H    14.28999996   3.10999990  55.61000061
H    25.09000015   4.72000027  52.90999985
H    24.71999931   3.51999998  54.15999985
