96

S    16.98999977   8.67000008  59.06000137
C    19.67000008   8.42000008  58.34999847
C    18.35000038   8.25000000  58.01000214
C    17.97999954   7.82000017  56.69000244
C    18.97999954   7.50000000  55.79000092
C    20.32999992   7.83999968  56.06999969
C    21.38999939   7.55999994  55.17000198
C    22.69000053   7.92999983  55.41999817
C    23.05000114   8.36999989  56.72999954
C    22.07999992   8.47000027  57.69000244
C    20.71000099   8.22000027  57.41000366
C    16.53000069   7.75000000  56.59999847
C    15.85999966   8.14000034  57.78999710
C    14.47000027   8.15999985  57.90000153
C    24.48999786   8.63000011  57.11000061
H    24.90280533   8.08196449  57.95696259
H    19.85999870   8.89000034  59.31999969
H    18.64999962   7.09000015  54.84000397
H    21.14000130   7.14999962  54.19000244
H    23.36000061   7.73999977  54.59999847
H    22.44999886   8.71000004  58.68999863
H    13.99000072   8.60000038  58.76999664
H    25.03999901   8.42000008  56.18000031
H    24.64999962   9.72000027  57.12999725
S    13.23999977   7.02000046  54.29999924
C    10.51000023   7.05999947  55.11000061
C    11.84000015   7.28999996  55.35999680
C    12.23999977   7.75000000  56.65999985
C    11.28000069   8.13000011  57.56999969
C     9.89999962   7.88000011  57.36999893
C     8.86999989   8.01000023  58.33000183
C     7.53999996   7.76999998  58.06999969
C     7.17999983   7.16000032  56.84000015
C     8.14999962   7.00000000  55.89000320
C     9.52999973   7.30000019  56.10000229
C    13.68999958   7.76000023  56.81999969
C    14.35999966   7.35000038  55.63000107
C    15.75000000   7.26999998  55.54000092
C     5.73999977   6.81999969  56.53999710
H     5.39193201   7.25330877  55.60234451
H    10.29999924   6.75000000  54.09000015
H    11.61000061   8.65999985  58.47000122
H     9.18000031   8.34000015  59.31999969
H     6.75000000   8.01999950  58.77999878
H     7.86999989   6.72999954  54.86999893
H    16.21000099   6.89000034  54.64000320
H     5.18000031   7.27999973  57.36999893
H     5.63000011   5.73000002  56.68000031
S    17.10000038   9.17000008  53.02000046
C    19.79999924   9.06999969  52.37999725
C    18.51000023   8.71000004  52.04999924
C    18.19000053   8.14999962  50.77000046
C    19.22999954   7.85000038  49.91000366
C    20.58000183   8.13000011  50.21999741
C    21.67000008   7.86999989  49.34000015
C    22.95000076   8.14999962  49.75000000
C    23.22000122   9.04999924  50.80999756
C    22.15999985   9.32999992  51.63999939
C    20.85000038   8.80999947  51.45999908
C    16.75000000   8.17000008  50.56000137
C    16.03999901   8.69999981  51.66999817
C    14.68000031   8.97000027  51.69000244
C    24.59000015   9.65999985  51.03000259
H    25.03238106   9.07491589  51.83627701
H    19.98999977   9.73999977  53.20999908
H    18.79999924   7.51999950  48.96999741
H    21.47000122   7.42999983  48.36999893
H    23.78999901   7.86000013  49.12000275
H    22.15999985  10.01000023  52.49000168
H    14.22000027   9.38000011  52.57999802
H    25.17000008   9.78999996  50.11000061
H    24.51999855  10.70000076  51.38999939
S    13.48999977   7.49000025  48.22999954
C    10.85999966   7.25000000  49.09999847
C    12.11999989   7.76000023  49.31999969
C    12.48999977   8.38999939  50.54999924
C    11.47999954   8.67999935  51.45999908
C    10.14999962   8.23999977  51.25000000
C     9.04999924   8.47999954  52.11999893
C     7.76999998   8.10000038  51.77999878
C     7.50999975   7.36000013  50.59999847
C     8.53999996   7.02000046  49.73999786
C     9.85000038   7.46000004  50.07999802
C    13.94000053   8.47000027  50.61000061
C    14.63999939   7.88000011  49.52999878
C    16.02000046   7.72000027  49.45999908
C     6.11000013   6.80999994  50.43000031
H     5.59733248   7.35826921  49.63963699
H    10.62999916   6.71999979  48.18000031
H    11.75000000   9.00000000  52.45999908
H     9.22999954   9.02999973  53.04000092
H     6.90999985   8.34999943  52.38999939
H     8.32999992   6.28000021  48.96999741
H    16.45000076   7.23000002  48.59000397
H     5.59999990   6.86999989  51.39999771
H     6.17000008   5.73999977  50.21999741
