96

S    16.44000053   9.06999969  59.40999985
C    19.10000038   9.26999950  58.77999878
C    17.87999916   8.76000023  58.40999985
C    17.60000038   8.03999996  57.19999695
C    18.67000008   7.82000017  56.35000229
C    19.93999863   8.36999989  56.65000153
C    20.95000076   8.22000027  55.65000153
C    22.22999954   8.60000038  55.96000290
C    22.56000137   9.15000057  57.22999954
C    21.54000092   9.44999981  58.09999847
C    20.17999840   9.09000015  57.87000275
C    16.18000031   7.79999971  57.02000046
C    15.47000027   8.30000019  58.13999939
C    14.07999992   8.46000004  58.15000153
C    24.00000000   9.51000023  57.52999878
H    24.38369179   8.80656719  58.26895905
H    19.29999924   9.84000015  59.68000031
H    18.57999992   7.14999962  55.50000000
H    20.59000015   7.92000008  54.66999817
H    22.88000107   8.39999962  55.12000275
H    21.68999863   9.90999985  59.06999969
H    13.60000038   8.96000004  58.99000168
H    24.63999939   9.56999969  56.65000153
H    23.92999840  10.54999924  57.87000275
S    12.97999954   7.16000032  54.58000183
C    10.21000004   7.26999998  55.27000046
C    11.54000092   7.34000015  55.61000061
C    11.94000053   7.95000029  56.84000015
C    10.95999908   8.22000027  57.77999878
C     9.57999992   8.10999966  57.47000122
C     8.56999969   8.30999947  58.44999695
C     7.23999977   8.19999981  58.09999847
C     6.84999990   8.01999950  56.73999786
C     7.81000042   7.68000031  55.81999969
C     9.19000053   7.69999981  56.14999771
C    13.38000107   8.01999950  57.02000046
C    14.11000061   7.59999990  55.87999725
C    15.48999977   7.44000006  55.84999847
C     5.40999985   7.60999966  56.47999573
H     5.10967779   7.83881664  55.45747375
H     9.98000050   6.94000006  54.26000214
H    11.14999962   8.47000027  58.81999969
H     8.92000008   8.64000034  59.41999817
H     6.44000006   8.27999973  58.81999969
H     7.49000025   7.36000013  54.82999802
H    16.01000023   7.34000015  54.89999771
H     4.84000015   8.13000011  57.25999832
H     5.36000013   6.56000042  56.79000092
S    16.94000053   9.57999992  53.57999802
C    19.70000076   9.61999989  52.97999954
C    18.40999985   9.30000019  52.63000107
C    18.04000092   8.59000015  51.45000076
C    19.09000015   8.28999996  50.59999847
C    20.42000008   8.69999981  50.84999847
C    21.44000053   8.42000008  49.88999939
C    22.72999954   8.78000069  50.17000198
C    23.15000153   9.36999989  51.38999939
C    22.14999962   9.61000061  52.30999756
C    20.76999855   9.31999969  52.09999847
C    16.61000061   8.51000023  51.16000366
C    15.88000107   8.97000027  52.29000092
C    14.51000023   9.19999981  52.22000122
C    24.60000038   9.72000027  51.66999817
H    25.11815453   9.05988598  52.36560059
H    19.97999954  10.19000053  53.86000061
H    18.88000107   7.78999996  49.65000153
H    21.25999832   7.85000038  48.97999573
H    23.45999908   8.47999954  49.41999817
H    22.39000130   9.96999931  53.29999924
H    14.04000092   9.53999996  53.13999939
H    25.03999901   9.70000076  50.66999817
H    24.51000023  10.73999977  52.04999924
S    13.55999947   8.10000038  48.50000000
C    10.80000019   8.14000034  49.20000076
C    12.10999966   8.43999958  49.47000122
C    12.43999958   8.85999966  50.79999924
C    11.44999981   9.06000042  51.73999786
C    10.08999920   8.76999950  51.45999908
C     9.03999996   8.94999981  52.39999771
C     7.72000027   8.67999935  52.12999725
C     7.40000010   8.22000027  50.81999969
C     8.38999939   7.96000004  49.89999771
C     9.76000023   8.25000000  50.15999603
C    13.88000011   8.90999985  51.00999832
C    14.61999989   8.52999973  49.86000061
C    15.95000076   8.18000031  49.97000122
C     5.92000008   8.10000038  50.56999969
H     5.54970026   8.45605755  49.60864639
H    10.59999943   7.78999996  48.18000031
H    11.76000023   9.39999962  52.71999741
H     9.35000038   9.22000027  53.40999985
H     6.97000027   8.82999992  52.90000153
H     8.11999989   7.69999981  48.88999939
H    16.56999969   7.78999996  49.15999985
H     5.36000013   8.52999973  51.40999603
H     5.73000002   7.02000046  50.50000000
