96

S    17.09000015   8.96000004  59.40999985
C    19.79999924   9.25000000  58.57999802
C    18.51000023   8.82999992  58.34999847
C    18.12000084   8.39999962  57.04000092
C    19.11000061   8.23000050  56.10000229
C    20.45999908   8.60999966  56.26999664
C    21.51000023   8.38000011  55.34000015
C    22.80999947   8.60000038  55.70999908
C    23.13999939   9.11000061  56.98999786
C    22.14999962   9.46000004  57.88000107
C    20.79999924   9.11999989  57.57999802
C    16.69000053   8.18000031  56.84999847
C    16.02000046   8.51000023  58.06000137
C    14.65000057   8.67999935  57.97999954
C    24.59000015   9.39999962  57.29999924
H    24.86068916   9.12218761  58.31864929
H    19.98999977   9.67000008  59.55999756
H    18.92000008   7.76999998  55.13000107
H    21.22999954   7.96000004  54.36999893
H    23.64000130   8.43000031  55.02999878
H    22.50000000   9.94000053  58.79000092
H    14.22999954   9.00000000  58.93000031
H    25.27000046   8.85999966  56.62000275
H    24.79000092  10.47999954  57.28000259
S    13.48999977   7.31999969  54.47999954
C    10.77999973   7.20000029  55.13999939
C    12.05999947   7.57999992  55.48999786
C    12.43000031   8.14999962  56.75000000
C    11.42000008   8.36000061  57.67000198
C    10.06000042   8.14000034  57.34000397
C     8.98999977   8.34999943  58.25000000
C     7.71000004   7.90999985  57.97000122
C     7.50000000   7.20000029  56.76000214
C     8.47000027   6.97000027  55.80999756
C     9.77000046   7.50000000  56.07999802
C    13.86000061   8.36999989  56.86999893
C    14.59000015   7.96000004  55.72000122
C    15.97000027   7.88000011  55.68999863
C     6.11000013   6.65000010  56.59000015
H     5.60592413   7.28186989  55.85873413
H    10.52999973   6.76999998  54.18000031
H    11.64999962   8.69999981  58.68000031
H     9.22999954   8.73000050  59.23999786
H     6.94000006   8.23000050  58.66000366
H     8.38999939   6.37000036  54.91000366
H    16.43000031   7.53000021  54.77000427
H     5.58000040   6.65999985  57.55000305
H     6.03999996   5.59999990  56.30000305
S    17.85000038   9.48000050  53.15000153
C    20.43999863   9.96000004  52.25999832
C    19.22999954   9.34000015  52.04999924
C    18.88000107   8.67000008  50.83000183
C    19.88999939   8.38000011  49.92000198
C    21.17000198   8.92000008  50.18000031
C    22.30999947   8.50000000  49.43000031
C    23.59000015   8.88000011  49.75999832
C    23.78999901   9.89999962  50.72999954
C    22.75000000  10.31999969  51.52999878
C    21.48999977   9.67000008  51.36000061
C    17.45000076   8.45000076  50.68999863
C    16.77999878   8.85999966  51.86999893
C    15.39999962   8.80000019  51.95999908
C    25.20000076  10.34000015  51.02000427
H    25.61854553   9.68735600  51.78614807
H    20.71000099  10.43000031  53.20999908
H    19.77000046   7.67000008  49.10999680
H    22.11999893   7.77999973  48.63999939
H    24.46000099   8.47000027  49.26000214
H    22.82999992  10.93999958  52.41000366
H    14.91000080   8.93000031  52.91999817
H    25.72000122  10.29999924  50.05000305
H    25.26000023  11.39999962  51.31999969
S    14.28999996   7.72000027  48.27999878
C    11.65999985   7.32999992  48.96999741
C    12.89000034   7.82999992  49.34999847
C    13.20000076   8.30999947  50.65999985
C    12.11999989   8.39999962  51.52000046
C    10.78999996   8.06999969  51.16000366
C     9.71000004   8.19999981  52.06999969
C     8.43000031   7.82999992  51.72000122
C     8.26000023   7.17999983  50.47000122
C     9.27999973   6.94000006  49.58000183
C    10.55999947   7.49000025  49.86000061
C    14.63999939   8.50000000  50.81999969
C    15.34000015   8.17000008  49.64000320
C    16.72000122   8.00000000  49.58000183
C     6.85999966   6.86999989  50.00999832
H     6.46831989   7.71745253  49.44740677
H    11.64000034   6.75000000  48.04999924
H    12.35000038   8.63000011  52.55000305
H     9.88000011   8.78000069  52.97999954
H     7.60999966   7.95000029  52.42000198
H     9.19000053   6.48999977  48.59000397
H    17.23999977   7.57999992  48.73000336
H     6.17999983   6.81999969  50.87999725
H     6.70000029   5.88000011  49.55999756
