96

S    16.51000023   8.56000042  59.20000076
C    19.15999985   8.61999989  58.44999695
C    17.86999893   8.34999943  58.08000183
C    17.46999931   8.05999947  56.72999954
C    18.45999908   8.10000038  55.77000046
C    19.82999992   8.19000053  56.13999939
C    20.92000008   8.01000023  55.25000000
C    22.25000000   8.14999962  55.54999924
C    22.52000046   8.84000015  56.76000214
C    21.53000069   8.98999977  57.70999908
C    20.19000053   8.57999992  57.48000336
C    16.02000046   7.94000053  56.65000153
C    15.38000011   8.30999947  57.84999847
C    14.00000000   8.45000076  57.93000031
C    23.92999840   9.19999981  57.15999985
H    24.33603477   8.63724995  58.00056458
H    19.27999878   8.93999958  59.48999786
H    18.27999878   7.99000025  54.71000290
H    20.55999947   7.62000036  54.29999924
H    23.02000046   7.78999996  54.87999725
H    21.84000015   9.39000034  58.67000198
H    13.53000069   8.47999954  58.90999603
H    24.61999893   9.10000038  56.31999969
H    23.97999954  10.22999954  57.51999664
S    12.71999931   7.35000038  54.33000183
C    10.08999920   7.13999987  55.07999802
C    11.36000061   7.49000025  55.47000122
C    11.79999924   7.96000004  56.75000000
C    10.77000046   8.10999966  57.65999603
C     9.40999985   7.82999992  57.37999725
C     8.43000031   7.76999998  58.40999985
C     7.17000008   7.34000015  58.08000183
C     6.83000040   7.00999975  56.73999786
C     7.75000000   7.00000000  55.72000122
C     9.10000038   7.30999994  56.07999802
C    13.22999954   8.22000027  56.77999878
C    13.88000011   7.83999968  55.58000183
C    15.26000023   7.72000027  55.48999786
C     5.51000023   6.32999992  56.50000000
H     5.06267405   6.76312542  55.60534668
H    10.03000069   6.76999998  54.06000137
H    11.13999939   8.45000076  58.62999725
H     8.75000000   8.01000023  59.41999817
H     6.53999996   7.09999990  58.93000031
H     7.49000025   6.63000011  54.72999954
H    15.80999947   7.48000050  54.59000015
H     4.84000015   6.56000042  57.34000397
H     5.61999989   5.25000000  56.31999969
S    16.77000046   9.39000034  53.08000183
C    19.51000023   9.11000061  52.57999802
C    18.22000122   8.73000050  52.29000092
C    17.93000031   8.19000053  51.00000000
C    18.94000053   7.96000004  50.08999634
C    20.28000069   8.31999969  50.38999939
C    21.38999939   8.22000027  49.52000046
C    22.69000053   8.52999973  49.82999802
C    22.98000145   9.09000015  51.10000229
C    21.91999817   9.17000008  51.97999954
C    20.59000015   8.76000023  51.72999954
C    16.50000000   8.22000027  50.68999863
C    15.75000000   8.78999996  51.75000000
C    14.37000084   8.96000004  51.81000137
C    24.31999969   9.70000076  51.45999908
H    24.74079514   9.17222309  52.31584930
H    19.85999870   9.81000042  53.33000183
H    18.71999931   7.62000036  49.08000183
H    21.18000031   7.85000038  48.52000427
H    23.51000023   8.46000004  49.12000275
H    21.97999954   9.85000038  52.83000183
H    13.89999962   9.48000050  52.63000107
H    24.90999985   9.59999943  50.52999878
H    24.18000031  10.76000023  51.66999817
S    13.38000107   7.68000031  48.15999985
C    10.67000008   7.64999962  48.87000275
C    11.96000004   8.01000023  49.18000031
C    12.25000000   8.43999958  50.51000214
C    11.26999950   8.60000038  51.46999741
C     9.96000004   8.17000008  51.14999771
C     8.93999958   8.15999985  52.15000153
C     7.64999962   7.75000000  51.90000153
C     7.37999964   7.11000013  50.65999985
C     8.34999943   7.07999992  49.68999863
C     9.63000011   7.68000031  49.84000397
C    13.69999981   8.46000004  50.68999863
C    14.42999935   8.09000015  49.52999878
C    15.80999947   7.92999983  49.51000214
C     5.97000027   6.65999985  50.33000183
H     5.58522844   7.23715734  49.48920441
H    10.48999977   7.20000029  47.90000153
H    11.56000042   9.03999996  52.42000198
H     9.19999981   8.60000038  53.11000061
H     6.84999990   7.83999968  52.63000107
H     8.18000031   6.71999979  48.68000031
H    16.31999969   7.49000025  48.64999771
H     5.35000038   6.80999994  51.22000122
H     5.96000004   5.61999989  50.00000000
