96

S    16.75000000   8.45000076  59.38999939
C    19.45000076   8.63000011  58.69999695
C    18.18000031   8.25000000  58.36000061
C    17.86999893   7.67000008  57.08000183
C    18.89000130   7.40999985  56.19999695
C    20.20000076   7.86999989  56.46999741
C    21.25999832   7.55999994  55.56999969
C    22.53999901   7.96999979  55.84000015
C    22.78000069   8.63000011  57.06999969
C    21.80999947   8.93999958  58.00000000
C    20.48000145   8.51000023  57.72999573
C    16.43000031   7.59999990  56.86000061
C    15.72000027   8.01999950  58.01000214
C    14.35999966   8.27000046  58.09000015
C    24.14999962   9.13999939  57.45999908
H    24.64594650   8.51652431  58.20391846
H    19.63999939   9.18000031  59.61999893
H    18.68000031   7.18999958  55.14999771
H    21.09999847   6.96000004  54.68000031
H    23.31999969   7.73999977  55.12000275
H    22.17000008   9.35999966  58.93000031
H    13.88000011   8.78000069  58.92000198
H    24.82000160   9.31999969  56.60999680
H    23.95000076  10.13000011  57.87000275
S    13.22000027   7.50000000  54.34999847
C    10.51000023   7.55000019  55.06000137
C    11.82000065   7.82000017  55.38000107
C    12.20999908   8.14000034  56.72000122
C    11.23000050   8.45000076  57.64999771
C     9.86999989   8.18000031  57.37999725
C     8.78000069   8.19999981  58.29999924
C     7.53000021   7.73000002  57.97000122
C     7.30999994   7.09000015  56.72000122
C     8.27999973   7.09999990  55.73999786
C     9.52999973   7.69999981  56.06999969
C    13.63999939   7.96000004  56.91999817
C    14.29999924   7.53000021  55.75000000
C    15.67999935   7.36999989  55.68999863
C     5.91000032   6.65000010  56.37000275
H     5.51274776   7.32391071  55.61096573
H    10.39999962   7.11999989  54.06000137
H    11.44999981   8.59000015  58.70999908
H     9.02000046   8.48999977  59.31999969
H     6.71000004   7.73000002  58.68999863
H     8.10000038   6.57999992  54.80999756
H    16.17000008   7.07000017  54.77000427
H     5.32000017   6.61000013  57.29000092
H     5.91000032   5.61999989  55.98999786
S    13.38999939   5.32999992  51.47999573
C    10.70000076   4.92999983  52.25999832
C    12.03999996   4.88999987  52.54000092
C    12.57999992   4.30000019  53.73000336
C    11.69000053   3.81999993  54.66999817
C    10.29999924   4.02999973  54.50000000
C     9.34000015   3.50000000  55.40999985
C     8.01999950   3.33999991  55.06999969
C     7.50999975   3.88000011  53.86000061
C     8.38999939   4.40000010  52.94000244
C     9.77999973   4.46999979  53.23999786
C    14.02999973   4.13000011  53.73000336
C    14.63000107   4.78999996  52.63000107
C    15.98999977   5.03999996  52.57999802
C     6.14000034   3.38000011  53.47999954
H     5.71269417   3.89276719  52.61827087
H    10.34000015   5.07000017  51.24000168
H    11.85999966   3.05999994  55.41999817
H     9.70000076   2.89000010  56.23000336
H     7.31999969   2.71000004  55.61999893
H     8.09000015   4.48999977  51.90000153
H    16.53000069   5.60999966  51.81999969
H     6.17000008   2.29999995  53.23999786
H     5.38000011   3.54999995  54.25000000
S    17.28999901   3.50000000  56.06999969
C    19.97999954   3.75999975  55.24000168
C    18.63999939   4.00000000  55.02999878
C    18.17000008   4.67000008  53.85000229
C    19.12999916   5.12000036  52.97000122
C    20.52000046   4.94999981  53.20999908
C    21.54000092   5.45000029  52.36000061
C    22.88000107   5.31000042  52.61000061
C    23.31000137   4.59000015  53.75999832
C    22.37999916   4.19999981  54.68999863
C    20.98999977   4.26999998  54.38000107
C    16.72000122   4.59000015  53.68000031
C    16.11999893   3.98999977  54.81999969
C    14.77000046   3.68999982  54.84000397
C    24.77000046   4.23999977  53.99000168
H    25.12623978   4.46799326  54.99459839
H    20.19000053   3.30000019  56.19999695
H    18.78000069   5.61999989  52.06999969
H    21.27000046   5.96000004  51.44000244
H    23.59000015   5.78000021  51.93000031
H    22.79000092   3.77999997  55.59999847
H    14.28999996   3.30999994  55.73999786
H    25.25000000   4.77999973  53.16999817
H    24.84999847   3.17000008  53.77999878
