96

S    16.64999962   8.78999996  59.34999847
C    19.37000084   8.94999981  58.68999863
C    18.07999992   8.63000011  58.31999969
C    17.79000092   8.02999973  57.04999924
C    18.76000023   7.88000011  56.07999802
C    20.09000015   8.21000004  56.45000076
C    21.14999962   7.83999968  55.56999969
C    22.46000099   8.14999962  55.86999893
C    22.78000069   8.80000019  57.09000015
C    21.77000046   9.11000061  57.95999908
C    20.39999962   8.78000069  57.72999573
C    16.36000061   7.86000013  56.86000061
C    15.62000084   8.23000050  58.01000214
C    14.25000000   8.46000004  58.06000137
C    24.14999962   9.32999992  57.43000031
H    24.66210938   8.61162281  58.07014084
H    19.60000038   9.48000050  59.61000061
H    18.53999901   7.53000021  55.07999802
H    20.93000031   7.39000034  54.61000061
H    23.13999939   8.06999969  55.02999878
H    21.90000153   9.67000008  58.88999939
H    13.76999950   8.80000019  58.96999741
H    24.63000107   9.43000031  56.45000076
H    23.95000076  10.24000072  57.98999786
S    13.10999966   6.93000031  54.61999893
C    10.38000011   6.76000023  55.37000275
C    11.68000031   7.07999992  55.66999817
C    12.06999969   7.75000000  56.86999893
C    11.05999947   7.81000042  57.81999969
C     9.68999958   7.63000011  57.54000092
C     8.67000008   8.02999973  58.44999695
C     7.35000038   7.96000004  58.04999924
C     6.96000004   7.46999979  56.77000046
C     7.95000029   7.05999947  55.90000153
C     9.31999969   7.11999989  56.25000000
C    13.48000050   8.10999966  56.95000076
C    14.19999981   7.63000011  55.83000183
C    15.59000015   7.63000011  55.72000122
C     5.49000025   7.40000010  56.45999908
H     5.14211655   7.81888056  55.51574326
H    10.08999920   6.34000015  54.40999985
H    11.26999950   8.34000015  58.75000000
H     8.94999981   8.40999985  59.43000031
H     6.58999968   8.27000046  58.75999832
H     7.62000036   6.74000025  54.91000366
H    16.06999969   7.48000050  54.75000000
H     4.94999981   7.82000017  57.31999969
H     5.29999971   6.32000017  56.44000244
S    13.73999977   5.05000019  51.59999847
C    11.06999969   4.51999998  52.11999893
C    12.38000011   4.38000011  52.51999664
C    12.81999969   3.79999995  53.75000000
C    11.84000015   3.32999992  54.59999847
C    10.47000027   3.51999998  54.29000092
C     9.48999977   3.12000012  55.22999573
C     8.17000008   3.42999983  54.97000122
C     7.79999971   4.05000019  53.75000000
C     8.69999981   4.34999990  52.75000000
C    10.06999969   4.13000011  53.04000092
C    14.25000000   3.96000004  54.01000214
C    14.84000015   4.67000008  52.94000244
C    16.17000008   5.07999992  52.93000031
C     6.34000015   4.30999994  53.48999786
H     5.97017431   3.65569234  52.70056152
H    10.92000008   5.12000036  51.22000122
H    12.10999966   2.69000006  55.43000031
H     9.73999977   2.52999997  56.11000061
H     7.44999981   3.07000017  55.70000076
H     8.52000046   4.71000004  51.73999786
H    16.54000092   5.64000034  52.08000183
H     5.77000046   4.13999987  54.41999817
H     6.10000038   5.32000017  53.15999985
S    17.53999901   3.52999973  56.33999634
C    20.22000122   4.17000008  55.65999985
C    18.86999893   4.28000021  55.41999817
C    18.42000008   4.86000013  54.19000244
C    19.37000084   5.28999996  53.27999878
C    20.76000023   5.26000023  53.54999924
C    21.70000076   5.78000021  52.61000061
C    23.02000046   5.86999989  52.97999954
C    23.52999878   5.26999998  54.16999817
C    22.60999870   4.75000000  55.05000305
C    21.21000099   4.69000006  54.79000092
C    17.00000000   4.65999985  53.97999573
C    16.40999985   3.89999986  55.01999664
C    15.07999992   3.50000000  55.04000092
C    24.90999985   5.58000040  54.69999695
H    25.24401093   4.89776754  55.48172379
H    20.62999916   3.67000008  56.53999710
H    19.07999992   5.77000046  52.35000229
H    21.40000153   6.07999992  51.60999680
H    23.62999916   6.48999977  52.34000397
H    23.01000214   4.41000032  56.00000000
H    14.68999958   2.79999995  55.77000046
H    24.84000015   6.63000011  55.00999832
H    25.73999786   5.55999994  53.97999573
