96

S    16.87999916   8.76000023  59.51000214
C    19.54000092   8.78000069  58.95000076
C    18.29000092   8.40999985  58.48999786
C    17.98999977   8.01000023  57.15000153
C    19.04000092   8.00000000  56.25000000
C    20.34000015   8.27000046  56.73999786
C    21.47999954   8.19000053  55.87999725
C    22.76000023   8.39999962  56.32999802
C    23.00000000   8.97000027  57.61000061
C    21.96000099   9.03999996  58.50999832
C    20.63999939   8.73999977  58.06000137
C    16.54999924   7.88000011  57.02000046
C    15.82999992   8.38000011  58.13999939
C    14.45000076   8.52000046  58.20000076
C    24.37999916   9.39000034  58.04000092
H    24.88510513   8.71415520  58.73007584
H    19.45999908   8.98999977  60.00999832
H    18.86000061   7.69000006  55.21999741
H    21.27000046   7.88000011  54.86000061
H    23.59999847   8.09000015  55.72000122
H    22.11999893   9.28999996  59.54999924
H    14.06000042   8.93000031  59.13000107
H    25.10000038   9.73999977  57.29000092
H    24.14999962  10.26999950  58.66000366
S    13.35999966   7.64999962  54.54000092
C    10.67000008   7.32999992  55.12000275
C    11.90000057   7.76000023  55.54999924
C    12.18000031   8.23999977  56.86999893
C    11.14999962   8.25000000  57.78999710
C     9.89000034   7.76000023  57.37999725
C     8.78999996   7.65999985  58.29000092
C     7.48000050   7.42000008  57.94000244
C     7.18999958   6.97000027  56.63000107
C     8.27000046   6.89000034  55.77000046
C     9.59000015   7.35000038  56.04000092
C    13.61999989   8.27000046  57.09999847
C    14.39000034   7.94000053  55.94999695
C    15.73999977   7.60999966  55.90000153
C     5.86000013   6.39999962  56.22000122
H     5.42536974   6.90588093  55.35786438
H    10.59999943   6.72999954  54.22000122
H    11.28000069   8.43999958  58.85000229
H     8.98999977   7.92999983  59.31999969
H     6.69000053   7.53000021  58.68000031
H     8.19000053   6.28999996  54.86999893
H    16.18000031   7.23000002  54.99000168
H     5.19999981   6.57000017  57.09000015
H     5.82000017   5.31000042  56.10000229
S    13.82999992   5.09999990  51.77999878
C    11.14999962   4.61000013  52.50000000
C    12.48999977   4.56999969  52.81000137
C    12.96000004   4.13000011  54.09999847
C    12.02999973   3.68000007  55.00999832
C    10.65999985   3.58999991  54.65999985
C     9.71000004   2.93000007  55.50000000
C     8.39999962   2.82000017  55.10000229
C     7.94000053   3.49000001  53.94000244
C     8.82999992   3.94000006  52.98999786
C    10.19999981   4.00999975  53.36000061
C    14.40999985   4.23000002  54.15000153
C    15.03999901   4.88999987  53.06999969
C    16.39999962   5.19000006  53.02999878
C     6.44999981   3.65000010  53.75000000
H     6.13033867   3.19537091  52.81232834
H    10.92000008   4.92999983  51.49000168
H    12.38999939   3.25000000  55.93999863
H    10.11999989   2.63999987  56.45999908
H     7.67000008   2.39999986  55.79000092
H     8.53999996   4.38000011  52.04000092
H    16.82999992   5.50000000  52.08000183
H     5.78999996   3.35000014  54.56999969
H     6.28999996   4.73000002  53.70999908
S    17.79999924   3.40999985  56.30000305
C    20.52000046   4.19000006  55.77000046
C    19.17000008   4.15999985  55.47000122
C    18.61999893   4.80999994  54.31999969
C    19.50000000   5.28999996  53.37999725
C    20.89999962   5.21000004  53.57999802
C    21.77999878   5.73999977  52.60000229
C    23.13999939   5.73000002  52.81000137
C    23.68000031   5.22000027  54.02000046
C    22.84000015   4.80999994  55.01999664
C    21.42999840   4.73000002  54.82999802
C    17.18000031   4.76000023  54.10999680
C    16.57999992   4.00000000  55.13999939
C    15.21999931   3.74000025  55.19000244
C    25.17999840   5.13000011  54.20000076
H    25.42149544   4.86719608  55.22991180
H    20.88999939   3.79999995  56.70999908
H    19.04000092   5.47999954  52.41000366
H    21.30000114   6.14000034  51.70000076
H    23.88999939   6.03999996  52.09000015
H    23.18000031   4.46000004  55.98999786
H    14.75999928   3.12999988  55.96000290
H    25.56999969   6.10000038  53.87000275
H    25.71000099   4.40000010  53.57999802
