96

S    17.10000038   8.69000053  59.34999847
C    19.79999924   8.76999950  58.50999832
C    18.48999977   8.38000011  58.29000092
C    18.15999985   7.86000013  57.00000000
C    19.14999962   7.51999950  56.07999802
C    20.48999977   7.92000008  56.31000137
C    21.53000069   7.73000002  55.34999847
C    22.85000038   8.05999947  55.56000137
C    23.09999847   8.82999992  56.72000122
C    22.14999962   9.02999973  57.70000076
C    20.81999969   8.56000042  57.55000305
C    16.72000122   7.72000027  56.88999939
C    16.03000069   8.10999966  58.06000137
C    14.65000057   8.28999996  58.04999924
C    24.51000023   9.38000011  56.79999924
H    25.00920486   8.77382183  57.55593872
H    20.13999939   9.36999989  59.34999847
H    18.86000061   7.17999983  55.08999634
H    21.17000198   7.44000006  54.36999893
H    23.55999947   7.96000004  54.75000000
H    22.37999916   9.61999989  58.57999802
H    14.22000027   8.85999966  58.87000275
H    24.94999886   9.22000027  55.79999924
H    24.54000092  10.46000004  57.01000214
S    13.53999996   6.81999969  54.55999756
C    10.77000046   7.13000011  55.13999939
C    12.10000038   7.36000013  55.44000244
C    12.48000050   7.81000042  56.75000000
C    11.50000000   8.23000050  57.63000107
C    10.13000011   8.18000031  57.28000259
C     9.11999989   8.52000046  58.22999954
C     7.78999996   8.30000019  57.95999908
C     7.42000008   7.65999985  56.75000000
C     8.36999989   7.31999969  55.81999969
C     9.76000023   7.55000019  56.04000092
C    13.90999985   7.77999973  56.97000122
C    14.65000057   7.30999994  55.84999847
C    16.03000069   7.22000027  55.77000046
C     5.98999977   7.22000027  56.52999878
H     5.63376045   7.64036322  55.58952713
H    10.48999977   6.51000023  54.29999924
H    11.76000023   8.75000000  58.54999924
H     9.59999943   8.69999981  59.19000244
H     7.07999992   8.47999954  58.76999664
H     8.14000034   6.70000029  54.94999695
H    16.45000076   6.86999989  54.82999802
H     5.38000011   7.68000031  57.31999969
H     5.84000015   6.14000034  56.59999847
S    13.68999958   4.92000008  51.39999771
C    10.93999958   4.40000010  52.06999969
C    12.30000019   4.32000017  52.31999969
C    12.71000004   3.68999982  53.54000092
C    11.77999973   3.17999983  54.41999817
C    10.39000034   3.38999987  54.22000122
C     9.44000053   3.01999998  55.20999908
C     8.11999989   3.33999991  54.95999908
C     7.67000008   4.00000000  53.79000092
C     8.56999969   4.23999977  52.77999878
C     9.94999981   3.93000007  52.95999908
C    14.14999962   3.76999998  53.69999695
C    14.84000015   4.46000004  52.67000198
C    16.17000008   4.86000013  52.70999908
C     6.24000025   4.39000034  53.50999832
H     5.77096510   3.82147264  52.70695114
H    10.55999947   4.94999981  51.22000122
H    12.10999966   2.77999997  55.38000107
H     9.77999973   2.64999986  56.17000198
H     7.30999994   3.03999996  55.63000107
H     8.26000023   4.75000000  51.86999893
H    16.61999893   5.50000000  51.95000076
H     5.66999960   4.28999996  54.45000076
H     6.06999969   5.46000004  53.34000015
S    17.53999901   3.33999991  56.04999924
C    20.22000122   3.81000018  55.24000168
C    18.86999893   4.00999975  55.08999634
C    18.36000061   4.76000023  53.97999573
C    19.20999908   5.38000011  53.08000183
C    20.61000061   5.23999977  53.29000092
C    21.53000069   5.65999985  52.28000259
C    22.86999893   5.40000010  52.36999893
C    23.38000107   4.67000008  53.47999954
C    22.53000069   4.19000006  54.45000076
C    21.12999916   4.44999981  54.36000061
C    16.94000053   4.46999979  53.81000137
C    16.31000137   3.72000003  54.82999802
C    14.96000099   3.38000011  54.78000259
C    24.86999893   4.41000032  53.57999802
H    25.24709702   4.77998257  54.53341675
H    20.61000061   3.22000003  56.06999969
H    18.79999924   5.84000015  52.18999863
H    21.15999985   6.19999981  51.40999603
H    23.51000023   5.82999992  51.59999847
H    22.96999931   3.52999973  55.19000244
H    14.56999969   2.75000000  55.58000183
H    25.26000023   4.96000004  52.71999741
H    25.06999969   3.33999991  53.46000290
