96

S    17.07999992   8.45000076  59.31999969
C    19.77000046   8.55000019  58.77999878
C    18.52000046   8.22000027  58.30999756
C    18.18000031   7.85000038  56.97000122
C    19.22000122   7.82000017  56.05999756
C    20.52000046   8.17000008  56.50000000
C    21.55999947   8.02999973  55.54000092
C    22.84000015   8.40999985  55.84999847
C    23.21000099   8.57999992  57.21000290
C    22.22999954   8.69999981  58.16999817
C    20.85000038   8.52000046  57.84999847
C    16.72999954   7.76999998  56.81999969
C    15.97000027   8.11999989  57.97000122
C    14.59000015   8.22000027  57.95999908
C    24.63000107   8.97000027  57.56999969
H    25.09281540   8.17965508  58.16098022
H    19.85000038   8.97999954  59.77000427
H    19.03000069   7.31999969  55.11000061
H    21.31000137   7.77999973  54.51000214
H    23.42000008   8.61999989  54.95999908
H    22.36000061   9.04999924  59.19000244
H    14.19999981   8.34000015  58.95999908
H    25.15000153   9.07999992  56.62000275
H    24.65999985  10.00000000  57.97000122
S    13.60999966   6.76999998  54.38000107
C    10.88999939   6.71999979  55.01999664
C    12.18000031   7.00000000  55.40999985
C    12.44999981   7.55000019  56.70000076
C    11.39999962   7.67000008  57.58999634
C    10.07999992   7.35000038  57.22000122
C     9.03999996   7.44999981  58.18999863
C     7.79999971   6.98999977  57.81000137
C     7.48000050   6.67000008  56.46999741
C     8.45000076   6.61999989  55.47999954
C     9.78999996   6.81999969  55.90999985
C    13.88000011   7.79999971  56.81999969
C    14.63000107   7.37999964  55.70000076
C    16.02000046   7.39000034  55.68000031
C     6.03999996   6.43000031  56.10000229
H     5.62668276   7.11411142  55.35888290
H    10.67999935   6.39999962  54.00000000
H    11.64999962   7.96000004  58.61000061
H     9.19999981   7.73999977  59.22000122
H     7.07000017   6.98999977  58.61999893
H     8.31999969   6.32999992  54.43999863
H    16.54999924   7.05999947  54.79000092
H     5.44000053   6.15999985  56.97999954
H     6.21000004   5.51000023  55.52000046
S    13.34000015   4.76000023  51.49000168
C    10.71000004   4.19000006  52.22999954
C    12.05000019   4.13999987  52.54000092
C    12.53000069   3.61000013  53.77999878
C    11.57999992   3.19000006  54.68999863
C    10.19000053   3.26999998  54.41999817
C     9.22000027   2.72000027  55.31000137
C     7.88999987   2.70000005  54.93999863
C     7.42999983   3.24000001  53.70999908
C     8.34000015   3.75000000  52.81999969
C     9.72999954   3.72000003  53.13999939
C    13.99000072   3.53999996  53.73000336
C    14.57999992   4.21000004  52.63999939
C    15.90999985   4.61000013  52.63000107
C     5.97000027   3.05999994  53.34999847
H     5.69902039   3.71605587  52.52279663
H    10.26999950   4.73000002  51.39999771
H    11.96000004   2.73000002  55.59999847
H     9.50000000   2.33999991  56.27999878
H     7.31999969   2.22000003  55.72999954
H     8.10000038   4.18000031  51.84999847
H    16.29999924   5.05999994  51.72000122
H     5.69000006   2.03999996  53.06000137
H     5.38999987   3.30000019  54.25000000
S    17.34000015   3.42999983  56.11000061
C    19.95000076   4.09000015  55.34999847
C    18.60000038   4.19999981  55.13000107
C    18.06999969   4.74000025  53.92000198
C    19.00000000   5.25000000  53.02000046
C    20.39999962   5.27999973  53.22000122
C    21.27000046   5.84999990  52.25000000
C    22.60999870   5.96000004  52.55000305
C    23.12000084   5.32999992  53.70999908
C    22.29000092   4.67999983  54.59000015
C    20.88000107   4.63999987  54.41999817
C    16.67000008   4.39000034  53.79000092
C    16.07999992   3.68000007  54.86999893
C    14.78000069   3.19000006  54.82999802
C    24.61999893   5.13999987  53.82999802
H    24.98991966   5.01195097  54.84727859
H    20.32999992   3.48000002  56.16000366
H    18.70000076   5.60999966  52.04000092
H    20.88000107   6.25000000  51.31999969
H    23.26999855   6.40999985  51.81000137
H    22.72999954   4.11000013  55.40000153
H    14.27999973   2.84000015  55.72999954
H    24.93999863   6.12999964  53.50999832
H    24.93000031   4.39000034  53.09000015
