96

S    16.92000008   8.60999966  59.43000031
C    19.67000008   8.56000042  58.88000107
C    18.38000107   8.36000061  58.44999695
C    18.02999878   7.86000013  57.15999985
C    19.05999947   7.55999994  56.29000092
C    20.42000008   7.86999989  56.58000183
C    21.45000076   7.78999996  55.59999847
C    22.73999977   8.13000011  55.94999695
C    23.02999878   8.55000019  57.28000259
C    22.03000069   8.64000034  58.22999954
C    20.68000031   8.32999992  57.90999985
C    16.60000038   7.60999966  56.98999786
C    15.86999989   8.05000019  58.11999893
C    14.48999977   7.96000004  58.25000000
C    24.36000061   9.13999939  57.65999603
H    24.90719604   8.42225075  58.27115631
H    19.86999893   9.13000011  59.79000092
H    18.92000008   7.16000032  55.28999710
H    21.18000031   7.40000010  54.62999725
H    23.51000023   8.01000023  55.19000244
H    22.32000160   9.04999924  59.19000244
H    14.01000023   8.17000008  59.20000076
H    25.09000015   9.38000011  56.88000107
H    24.27999878  10.10000038  58.18999863
S    13.45999908   6.51999998  54.69999695
C    10.76000023   6.17999983  55.43000031
C    12.02999973   6.63000011  55.73999786
C    12.35000038   7.21000004  57.01000214
C    11.31000042   7.40000010  57.88999939
C     9.96000004   7.07000017  57.61000061
C     8.85000038   7.48000050  58.40000153
C     7.57000017   7.07999992  58.06999969
C     7.35000038   6.39999962  56.84999847
C     8.38000011   6.01999998  56.02000427
C     9.71000004   6.38000011  56.37000275
C    13.78000069   7.46999979  57.14000320
C    14.52000046   7.11999989  55.98999786
C    15.90999985   7.11999989  55.86999893
C     5.91000032   6.05000019  56.52000046
H     5.55432987   6.64752626  55.68061829
H    10.52999973   5.63000011  54.52999878
H    11.54999924   7.86999989  58.82999802
H     8.94999981   7.96000004  59.36000061
H     6.78999996   7.39000034  58.76999664
H     8.06999969   5.49000025  55.13000107
H    16.34000015   6.76000023  54.93999863
H     5.31000042   6.35999966  57.38999939
H     5.78000021   4.98000002  56.32999802
S    17.47999954   8.57999992  53.31999969
C    20.15999985   8.85000038  52.61000061
C    18.88000107   8.57999992  52.22000122
C    18.52000046   8.17000008  50.89000320
C    19.54000092   7.90999985  49.98000336
C    20.86999893   8.21000004  50.34000015
C    21.94000053   8.30000019  49.40000153
C    23.23999786   8.65999985  49.68999863
C    23.59999847   8.93000031  51.03000259
C    22.56999969   8.92000008  51.95000076
C    21.19999886   8.64000034  51.66999817
C    17.09000015   7.95000029  50.79999924
C    16.36999893   8.13000011  52.01000214
C    14.98000050   8.17000008  52.11000061
C    25.00000000   9.30999947  51.44000244
H    25.34788322   8.80592346  52.34165955
H    20.43999863   9.26000023  53.57999802
H    19.30999947   7.90000010  48.92000198
H    21.68999863   8.09000015  48.36999893
H    24.02000046   8.76999950  48.93000031
H    22.80999947   9.17000008  52.97999954
H    14.53999996   8.09000015  53.09000015
H    25.76000023   9.15999985  50.65999985
H    24.82000160  10.36999893  51.62000275
S    13.76999950   7.48000050  48.39000320
C    11.07999992   7.39000034  49.08000183
C    12.38000011   7.63000011  49.47000122
C    12.81000042   7.92000008  50.80999756
C    11.77999973   8.05000019  51.72999954
C    10.43000031   7.75000000  51.45999908
C     9.39999962   7.64999962  52.43999863
C     8.14000034   7.17999983  52.15000153
C     7.85000038   6.88000011  50.79000092
C     8.73000050   7.14999962  49.77000427
C    10.07999992   7.44000006  50.08999634
C    14.25000000   8.05000019  50.91999817
C    14.93000031   7.78999996  49.69999695
C    16.31000137   7.62000036  49.68999863
C     6.47000027   6.38000011  50.44000244
H     6.08027077   6.86893320  49.54716492
H    10.70000076   7.03999996  48.13000107
H    11.98999977   8.40999985  52.72999573
H     9.77000046   7.69999981  53.46000290
H     7.42000008   6.97000027  52.94000244
H     8.57999992   6.93000031  48.72000122
H    16.82999992   7.40999985  48.75999832
H     5.77000046   6.60000038  51.25000000
H     6.54999971   5.28999996  50.31999969
