96

S    16.97999954   8.73000050  59.58000183
C    19.60000038   8.71999931  58.82999802
C    18.34000015   8.26000023  58.54000092
C    17.90999985   7.82999992  57.23999786
C    18.84000015   7.81000042  56.22000122
C    20.20000076   8.11999989  56.47999573
C    21.19999886   8.18000031  55.47000122
C    22.50000000   8.52999973  55.72999954
C    22.88999939   8.82999992  57.05999756
C    21.90999985   8.97999954  58.01000214
C    20.53999901   8.67999935  57.76000214
C    16.46999931   7.92000008  57.06999969
C    15.85000038   8.38999939  58.25000000
C    14.47999954   8.56000042  58.39000320
C    24.28999901   9.25000000  57.43999863
H    24.76605034   8.66737080  58.22867966
H    19.78000069   9.07999992  59.84000397
H    18.59000015   7.69000006  55.17000198
H    20.84000015   7.88999987  54.47999954
H    23.19000053   8.52999973  54.88999939
H    22.27999878   9.31999969  58.96999741
H    14.04999924   8.60000038  59.38999939
H    24.96000099   9.22000027  56.56999969
H    24.21999931  10.29000092  57.77999878
S    13.25000000   7.73999977  54.65999985
C    10.55999947   7.63000011  55.38000107
C    11.84999943   7.92999983  55.72999954
C    12.31999969   8.32999992  57.02999878
C    11.30000019   8.55000019  57.94000244
C     9.92999935   8.27999973  57.68000031
C     9.00000000   8.09000015  58.74000168
C     7.71000004   7.75000000  58.37999725
C     7.34000015   7.27999973  57.09000015
C     8.23000050   7.46999979  56.05999756
C     9.55000019   7.90000010  56.33999634
C    13.76000023   8.39999962  57.19999695
C    14.39000034   7.97999954  56.00000000
C    15.75000000   7.72000027  55.87999725
C     5.91000032   6.84999990  56.86000061
H     5.40560293   7.41833448  56.07854080
H    10.34999943   7.00000000  54.52000046
H    11.49000072   8.86999989  58.95999908
H     9.25000000   8.21000004  59.79000092
H     7.00999975   7.60999966  59.19000244
H     8.00000000   7.22000027  55.01999664
H    16.25000000   7.62000036  54.92000198
H     5.29999971   6.86999989  57.77000046
H     6.01999998   5.80999947  56.52999878
S    13.68999958   5.84000015  51.72999954
C    11.00999928   5.38999987  52.29000092
C    12.31999969   5.13999987  52.61000061
C    12.84999943   4.35999966  53.68999863
C    11.87999916   3.86999989  54.54999924
C    10.50000000   3.96000004  54.25000000
C     9.50000000   3.35000014  55.06000137
C     8.14999962   3.42999983  54.84000397
C     7.73999977   4.23000002  53.74000168
C     8.65999985   4.80999994  52.90000153
C    10.06000042   4.76000023  53.13999939
C    14.29999924   4.44999981  53.82999802
C    14.93999958   5.23000002  52.84000015
C    16.23999977   5.69000006  53.00000000
C     6.25000000   4.46999979  53.60000229
H     5.90911579   4.13621712  52.61995697
H    10.75000000   5.98000002  51.42000198
H    12.15000057   3.40999985  55.50000000
H     9.84000015   2.63000011  55.80999756
H     7.40999985   2.86000013  55.40000153
H     8.34999943   5.44000053  52.05999756
H    16.70999908   6.17999983  52.15000153
H     5.69000006   3.96000004  54.38999939
H     5.97000027   5.52999973  53.57999802
S    17.52000046   3.67000008  56.17000198
C    20.20000076   4.11999989  55.51000214
C    18.86999893   4.41000032  55.28999710
C    18.43000031   5.19000006  54.16999817
C    19.32999992   5.69000006  53.25000000
C    20.71000099   5.49000025  53.50999832
C    21.73999977   6.03999996  52.70000076
C    23.06999969   5.73999977  52.88000107
C    23.45999908   4.92000008  53.96999741
C    22.52000046   4.35999966  54.79999924
C    21.14000130   4.61000013  54.56999969
C    16.97999954   5.14999962  54.06000137
C    16.34000015   4.30999994  55.00000000
C    14.98000050   4.02999973  54.98000336
C    24.90999985   4.53000021  54.15999985
H    25.25148582   4.83591557  55.14888763
H    20.55000114   3.72000003  56.45000076
H    18.97999954   6.15999985  52.34000397
H    21.45000076   6.61999989  51.83000183
H    23.81000137   5.92999983  52.09999847
H    22.82999992   3.70000005  55.61000061
H    14.46000004   3.49000001  55.77000046
H    25.39999962   5.13999987  53.39000320
H    24.99000168   3.45999980  53.95000076
