96

S    17.42000008   8.67000008  59.52000046
C    20.10999870   9.06000042  58.74000168
C    18.81000137   8.71000004  58.43000031
C    18.51000023   8.30000019  57.09000015
C    19.50000000   8.01999950  56.16000366
C    20.84000015   8.30000019  56.52000046
C    21.91999817   8.01000023  55.63000107
C    23.25000000   8.10000038  55.97000122
C    23.57000160   8.51000023  57.29000092
C    22.55000114   8.93999958  58.09999847
C    21.15999985   8.85000038  57.81000137
C    17.10000038   7.96000004  56.97999954
C    16.36000061   8.30999947  58.13999939
C    14.98999977   8.48999977  58.11000061
C    25.03999901   8.59000015  57.65999603
H    25.38842201   7.81493711  58.34262085
H    20.31999969   9.35999966  59.75999832
H    19.27999878   7.35000038  55.34000015
H    21.67000008   7.77999973  54.59999847
H    24.00000000   7.79999971  55.25000000
H    22.86000061   9.22999954  59.09999847
H    14.44000053   8.82999992  58.97999573
H    25.61000061   8.56000042  56.72000122
H    25.17999840   9.48999977  58.27000046
S    13.94000053   7.21000004  54.52000046
C    11.21000099   7.20000029  55.28999710
C    12.51999950   7.55999994  55.52999878
C    12.86999893   8.13000011  56.79000092
C    11.84999943   8.38999939  57.69000244
C    10.50000000   8.05999947  57.45999908
C     9.44000053   8.27999973  58.39000320
C     8.14999962   7.88999987  58.13000107
C     7.81000042   7.30999994  56.88000107
C     8.80999947   7.07000017  55.97000122
C    10.14999962   7.49000025  56.18999863
C    14.32000065   8.19999981  56.90999985
C    15.06000042   7.69000006  55.80999756
C    16.44000053   7.55000019  55.80999756
C     6.46000004   6.63000011  56.73999786
H     5.83468580   7.12030315  55.99388504
H    10.95999908   6.80000019  54.31000137
H    12.11999989   8.71000004  58.69999695
H     9.71000004   8.84000015  59.27999878
H     7.39000034   8.01999950  58.89999771
H     8.73000050   6.38000011  55.13000107
H    16.97000122   7.26000023  54.91000366
H     5.98000002   6.67000008  57.71999741
H     6.69000053   5.56999969  56.53999710
S    17.47999954   9.51000023  53.11999893
C    20.15999985   9.42000008  52.56999969
C    18.89999962   9.10000038  52.14000320
C    18.53000069   8.40999985  50.93999863
C    19.55999947   8.11999989  50.06000137
C    20.86999893   8.59000015  50.34000015
C    21.97000122   8.38000011  49.47000122
C    23.25000000   8.78999996  49.73999786
C    23.52999878   9.46000004  50.96000290
C    22.49000168   9.68000031  51.84000015
C    21.18999863   9.15000057  51.62000275
C    17.09000015   8.25000000  50.81999969
C    16.38000107   8.82999992  51.90000153
C    14.98999977   8.84000015  51.88999939
C    24.93999863   9.86999989  51.31999969
H    25.45080566   9.12507343  51.93013000
H    20.35000038   9.85999966  53.54999924
H    19.23999977   7.69999981  49.10999680
H    21.87000084   7.78999996  48.55999756
H    24.02000046   8.71999931  48.97999573
H    22.67999840  10.06999969  52.83000183
H    14.39000034   9.38000011  52.62000275
H    25.55000114  10.08999920  50.44000244
H    24.86999893  10.76000023  51.97000122
S    13.86999989   7.36000013  48.43000031
C    11.07999992   7.40999985  49.06999969
C    12.39999962   7.69999981  49.36000061
C    12.76999950   8.23999977  50.63000107
C    11.87000084   8.38999939  51.66999817
C    10.51000023   8.14999962  51.33999634
C     9.47000027   8.28999996  52.29999924
C     8.14000034   8.00000000  52.09999847
C     7.72000027   7.73999977  50.77000046
C     8.69000053   7.53999996  49.82999802
C    10.08999920   7.72000027  50.04000092
C    14.19999981   8.42000008  50.80999756
C    14.96000099   7.94000053  49.71000290
C    16.34000015   7.82000017  49.72000122
C     6.38000011   7.09999990  50.47999954
H     5.91256189   7.67367411  49.67968750
H    10.77999973   7.09000015  48.08000183
H    12.23999977   8.52000046  52.68000031
H     9.80000019   8.60000038  53.29000092
H     7.46000004   7.97999954  52.95000076
H     8.43999958   7.03999996  48.89999771
H    16.90999985   7.36000013  48.90999603
H     5.73999977   7.22000027  51.36000061
H     6.56000042   6.06999969  50.13999939
