96

S    17.20000076   8.61999989  59.61999893
C    19.93999863   8.64000034  58.86000061
C    18.63999939   8.27000046  58.63999939
C    18.26000023   7.69999981  57.37999725
C    19.23999977   7.35000038  56.46999741
C    20.61000061   7.67000008  56.65999985
C    21.60000038   7.40999985  55.66999817
C    22.93000031   7.62000036  55.93999863
C    23.29999924   8.06999969  57.22999954
C    22.34000015   8.40999985  58.15999985
C    20.94000053   8.25000000  57.94000244
C    16.81999969   7.77999973  57.18999863
C    16.05999947   8.25000000  58.29999924
C    14.70999908   8.55000019  58.23999786
C    24.73999977   8.42000008  57.50000000
H    25.15383911   7.97761869  58.40616608
H    20.03999901   9.21000004  59.78000259
H    18.86999893   7.00000000  55.51000214
H    21.28000069   7.04999971  54.69999695
H    23.57999992   7.44999981  55.07999802
H    22.63000107   8.76000023  59.15000153
H    14.22000027   8.82999992  59.16999817
H    25.35000038   8.05999947  56.65999985
H    24.75000000   9.51000023  57.60000229
S    13.71000099   7.35000038  54.59000015
C    11.00999928   7.18999958  55.14999771
C    12.25999928   7.55999994  55.59000015
C    12.56000042   8.06999969  56.88999939
C    11.50000000   8.38999939  57.71999741
C    10.21000004   7.99000025  57.29000092
C     9.17000008   8.19000053  58.25000000
C     7.86999989   7.86000013  57.97999954
C     7.60999966   7.11000013  56.79999924
C     8.60000038   6.85999966  55.87999725
C     9.92999935   7.32999992  56.04999924
C    13.99000072   8.17000008  57.09999847
C    14.75000000   7.69999981  55.98999786
C    16.11999893   7.51999950  56.00999832
C     6.23000050   6.57000017  56.50000000
H     5.73266459   7.27337408  55.83214951
H    10.86999989   6.61000013  54.23999786
H    11.57999992   8.84000015  58.70999908
H     9.42000008   8.47999954  59.27000046
H     7.04999971   8.07999992  58.66000366
H     8.28999996   6.54999971  54.87999725
H    16.65999985   7.22000027  55.11000061
H     5.75000000   6.54999971  57.48000336
H     6.21999979   5.55999994  56.06999969
S    17.78000069   8.97999954  53.20999908
C    20.52000046   9.11000061  52.47000122
C    19.22000122   8.78000069  52.18000031
C    18.84000015   8.32999992  50.87999725
C    19.88000107   8.07999992  50.00000000
C    21.21999931   8.46000004  50.22999573
C    22.26000023   8.09000015  49.34000015
C    23.59000015   8.31999969  49.64000320
C    23.88000107   9.02999973  50.84000015
C    22.89999962   9.43000031  51.72000122
C    21.54000092   9.10000038  51.47999573
C    17.38999939   8.25000000  50.70999908
C    16.67000008   8.61999989  51.86999893
C    15.29999924   8.76999950  52.00000000
C    25.30999947   9.42000008  51.11000061
H    25.76420593   8.83804989  51.91195679
H    20.79999924   9.36999989  53.48999786
H    19.60000038   7.42999983  49.16999817
H    22.04999924   7.40000010  48.53000259
H    24.37999916   7.86999989  49.06000137
H    23.12000084   9.65999985  52.76000214
H    14.88000011   9.04999924  52.95999908
H    25.92000008   9.25000000  50.20999908
H    25.34000015  10.48999977  51.32999802
S    14.14999962   7.57000017  48.36999893
C    11.40999985   7.76000023  49.12000275
C    12.75000000   7.82999992  49.41999817
C    13.12000084   8.36000061  50.70000076
C    12.18999958   8.73000050  51.65999985
C    10.84000015   8.36000061  51.45000076
C     9.89999962   8.42000008  52.50999832
C     8.60000038   8.01999950  52.28000259
C     8.14000034   7.68000031  50.97999954
C     9.06000042   7.63000011  49.95999908
C    10.43000031   7.96000004  50.13000107
C    14.55999947   8.43999958  50.84999847
C    15.25000000   8.01999950  49.68999863
C    16.63999939   7.90999985  49.58000183
C     6.74000025   7.14999962  50.81999969
H     6.41267252   7.49155951  49.83801651
H    11.03999996   7.39000034  48.15999985
H    12.48000050   9.13000011  52.63000107
H    10.11000061   8.89999962  53.47000122
H     7.95000029   8.10999966  53.15000153
H     8.82999992   7.23000002  48.96999741
H    17.12000084   7.69000006  48.62999725
H     6.15999985   7.55999994  51.65999985
H     6.71999979   6.06999969  50.97999954
