96

S    16.31999969   8.56000042  59.31999969
C    19.04000092   8.80999947  58.68999863
C    17.77000046   8.42000008  58.30999756
C    17.52000046   7.95000029  56.97999954
C    18.54999924   7.94000053  56.05999756
C    19.88000107   8.23999977  56.45999908
C    20.95999908   7.96000004  55.56999969
C    22.23999977   8.32999992  55.90999985
C    22.52000046   8.86999989  57.18999863
C    21.48999977   9.02000046  58.09000015
C    20.13999939   8.67999935  57.80000305
C    16.09000015   7.85000038  56.73999786
C    15.32999992   8.17000008  57.90000153
C    13.94999981   8.27999973  57.94000244
C    23.92000008   9.30999947  57.55000305
H    24.32466125   8.74205112  58.38772964
H    19.22000122   9.35999966  59.61000061
H    18.27999878   7.67000008  55.05000305
H    20.75000000   7.50000000  54.61000061
H    23.05999947   8.09000015  55.24000168
H    21.68000031   9.47000027  59.06000137
H    13.40000057   8.59000015  58.82999802
H    24.50000000   9.15999985  56.63000107
H    23.92000008  10.39000034  57.76000214
S    12.84000015   7.27999973  54.29000092
C    10.10000038   7.18999958  54.89999771
C    11.39000034   7.50000000  55.27999878
C    11.77999973   7.94000053  56.59000015
C    10.80999947   7.88999987  57.56999969
C     9.48000050   7.57000017  57.21000290
C     8.38000011   7.62000036  58.11000061
C     7.07000017   7.34000015  57.80000305
C     6.70000029   7.18999958  56.44000244
C     7.69999981   7.16000032  55.48999786
C     9.06000042   7.35000038  55.84999847
C    13.22999954   8.01000023  56.77000046
C    13.96000004   7.67000008  55.61000061
C    15.34999943   7.64999962  55.56999969
C     5.28999996   6.86999989  56.00000000
H     4.95408583   7.46321011  55.14949036
H     9.98000050   6.98000002  53.83999634
H    11.05999947   8.07999992  58.61000061
H     8.64000034   7.86000013  59.13999939
H     6.25999975   7.36000013  58.53000259
H     7.42999983   6.89000034  54.47000122
H    15.84000015   7.40000010  54.62999725
H     4.61999989   7.16000032  56.81000137
H     5.13999987   5.78999996  55.87999725
S    17.20000076   9.27999973  53.04999924
C    19.93000031   9.00000000  52.50000000
C    18.63000107   8.80000019  52.11000061
C    18.27000046   8.26000023  50.84000015
C    19.27999878   8.00000000  49.93000031
C    20.62999916   8.25000000  50.26000214
C    21.65999985   8.30999947  49.27999878
C    22.96999931   8.56999969  49.62999725
C    23.25000000   9.09000015  50.91999817
C    22.27000046   9.22000027  51.88000107
C    20.97999954   8.71000004  51.58000183
C    16.84000015   8.36999989  50.58000183
C    16.13000107   8.88000011  51.69000244
C    14.73999977   8.97999954  51.70000076
C    24.63000107   9.57999992  51.29000092
H    25.16339302   8.91859341  51.97274017
H    20.22999954   9.39999962  53.46000290
H    19.07999992   7.81000042  48.88000107
H    21.38999939   8.15999985  48.23999786
H    23.75000000   8.53999996  48.88000107
H    22.43999863   9.77000046  52.80000305
H    14.25000000   9.21000004  52.63999939
H    25.20000076   9.64999962  50.34999847
H    24.57999992  10.57000065  51.77000046
S    13.89999962   7.75000000  47.95999908
C    11.18999958   7.59000015  48.57999802
C    12.43000031   8.07999992  48.88999939
C    12.69999981   8.69000053  50.15999603
C    11.63000011   8.98999977  50.97999954
C    10.38000011   8.38000011  50.70000076
C     9.43000031   8.28999996  51.75000000
C     8.19999981   7.72000027  51.47999573
C     7.86999989   7.26999998  50.18000031
C     8.76000023   7.28999996  49.13000107
C    10.07999992   7.73999977  49.43999863
C    14.11999893   8.78000069  50.45999908
C    14.85999966   8.30999947  49.34000015
C    16.23999977   8.11999989  49.34000015
C     6.44999981   6.80000019  49.95999908
H     6.03133297   7.27543545  49.07299423
H    11.13000011   7.07999992  47.62000275
H    11.73999977   9.47000027  51.95000076
H     9.57999992   8.96000004  52.60000229
H     7.42000008   7.76999998  52.23999786
H     8.65999985   6.81999969  48.15999985
H    16.86000061   7.67000008  48.56999969
H     5.92999983   7.00999975  50.90000153
H     6.34000015   5.72000027  49.79000092
