96

S    16.69000053   8.75000000  59.36000061
C    19.37000084   9.01000023  58.66000366
C    18.12000084   8.52999973  58.34000015
C    17.70000076   8.11999989  57.02999878
C    18.67000008   8.05000019  56.04999924
C    20.00000000   8.43000031  56.31999969
C    21.05999947   8.21000004  55.38999939
C    22.34000015   8.61999989  55.68000031
C    22.62000084   9.23999977  56.91999817
C    21.64999962   9.42000008  57.88000107
C    20.31999969   9.00000000  57.60000229
C    16.25000000   8.00000000  56.90000153
C    15.54999924   8.43999958  58.04999924
C    14.15999985   8.53999996  58.04999924
C    24.04999924   9.68999958  57.15999985
H    24.53877831   9.05246258  57.89670944
H    19.57999992   9.30000019  59.68000031
H    18.53000069   7.48000050  55.13999939
H    20.86000061   7.71000004  54.43999863
H    23.12000084   8.34000015  54.98000336
H    21.86000061   9.88000011  58.85000229
H    13.71999931   8.76999950  59.01000214
H    24.61000061   9.81999969  56.23000336
H    23.85999870  10.65000057  57.64999771
S    13.09999943   7.36000013  54.40000153
C    10.42000008   7.02000046  55.10000229
C    11.69999981   7.35000038  55.48999786
C    11.97999954   7.85000038  56.79999924
C    10.95000076   7.92999983  57.71999741
C     9.64999962   7.49000025  57.37999725
C     8.60999966   7.55000019  58.34999847
C     7.32999992   7.22000027  57.97999954
C     7.03999996   6.81999969  56.65000153
C     8.02999973   6.71999979  55.70000076
C     9.35000038   7.13000011  56.02000427
C    13.40000057   8.13000011  56.95000076
C    14.13000011   7.77999973  55.77999878
C    15.51000023   7.65999985  55.76000214
C     5.63000011   6.50000000  56.22000122
H     5.15815830   7.15056992  55.48364258
H    10.14000034   6.83000040  54.06000137
H    11.13000011   8.34000015  58.72000122
H     8.76000023   7.96000004  59.34999847
H     6.50000000   7.23000002  58.68000031
H     7.92000008   6.35999966  54.68000031
H    15.85999966   7.35000038  54.78000259
H     5.21000004   6.43000031  57.22999954
H     5.61999989   5.47999954  55.80999756
S    13.22999954   5.00999975  51.45000076
C    10.54999924   4.57999992  52.16999817
C    11.89000034   4.46000004  52.47000122
C    12.39999962   3.86999989  53.67000198
C    11.46999931   3.40999985  54.58000183
C    10.08999920   3.53999996  54.29999924
C     9.13999939   3.00999999  55.21999741
C     7.78999996   3.01999998  54.95999908
C     7.36000013   3.45999980  53.68000031
C     8.22000027   3.86000013  52.68000031
C     9.56999969   4.07000017  53.06000137
C    13.83999920   4.02999973  53.81000137
C    14.45000076   4.65000010  52.69000244
C    15.80000019   4.98000002  52.65999603
C     5.92000008   3.10999990  53.33000183
H     5.59389305   3.59207082  52.40839386
H    10.29000092   5.05999994  51.23000336
H    11.82999992   3.03999996  55.54000092
H     9.53999996   2.50999975  56.09000397
H     7.04999971   2.57999992  55.61999893
H     7.92000008   4.15999985  51.68000031
H    16.20000076   5.59999990  51.86999893
H     5.79999971   2.01999998  53.25000000
H     5.33999968   3.58000016  54.13000107
S    17.17000008   3.55999994  56.14999771
C    19.85999870   4.15999985  55.47999954
C    18.52000046   4.25000000  55.20999908
C    17.97999954   4.94999981  54.08000183
C    18.88000107   5.46999979  53.15999985
C    20.27000046   5.44000053  53.43999863
C    21.28999901   5.98000002  52.60000229
C    22.62000084   5.66999960  52.67000198
C    23.09000015   5.09999990  53.88999939
C    22.19000053   4.67999983  54.84000397
C    20.79000092   4.76000023  54.59000015
C    16.59000015   4.67999983  53.76999664
C    16.02000046   3.96000004  54.86000061
C    14.65999985   3.65999985  54.88999939
C    24.56999969   5.03000021  54.18000031
H    24.89604568   5.29225445  55.18648911
H    20.17999840   3.47000003  56.25000000
H    18.45999908   5.89999962  52.25999832
H    20.93000031   6.48999977  51.70999908
H    23.36999893   5.92999983  51.91999817
H    22.56999969   4.32000017  55.79000092
H    14.23999977   3.16000009  55.75000000
H    25.00999832   5.63000011  53.36999893
H    24.84999847   3.98999977  53.95000076
