96

S    16.97000122   8.52000046  59.52000046
C    19.71999931   8.65999985  58.83999634
C    18.42000008   8.31999969  58.50999832
C    18.04999924   7.75000000  57.25000000
C    19.09000015   7.35000038  56.44000244
C    20.38999939   7.88000011  56.65000153
C    21.42999840   7.72000027  55.70000076
C    22.67000008   8.27999973  55.86999893
C    22.90999985   9.07999992  57.02000046
C    21.98999786   9.23999977  58.02999878
C    20.71000099   8.64000034  57.83000183
C    16.61000061   7.75000000  57.00000000
C    15.90000057   8.18000031  58.15000153
C    14.52000046   8.32999992  58.16999817
C    24.31999969   9.51000023  57.36000061
H    24.79671097   9.05463505  58.22803879
H    19.95000076   9.00000000  59.84000397
H    18.86999893   6.80999994  55.52999878
H    21.11999893   7.22000027  54.78000259
H    23.45000076   8.06999969  55.13000107
H    22.21999931   9.70000076  58.99000168
H    14.01999950   8.76999950  59.02000046
H    24.89000130   9.27999973  56.44000244
H    24.17000008  10.59000015  57.36000061
S    13.38000107   7.00999975  54.58000183
C    10.76000023   7.18999958  55.22999573
C    12.02999973   7.53999996  55.61000061
C    12.35000038   8.10999966  56.88999939
C    11.36000061   8.36999989  57.83000183
C    10.01999950   8.07999992  57.48000336
C     8.97000027   8.25000000  58.41999817
C     7.71000004   7.78999996  58.11999893
C     7.37999964   7.37999964  56.79999924
C     8.39999962   7.22000027  55.89000320
C     9.76000023   7.50999975  56.18999863
C    13.78999901   8.01999950  57.01000214
C    14.47999954   7.48000050  55.89000320
C    15.85999966   7.30000019  55.90999985
C     5.97000027   6.86999989  56.56999969
H     5.43504620   7.38355637  55.77113724
H    10.52999973   6.56000042  54.38000107
H    11.67000008   8.69999981  58.81000137
H     9.30999947   8.55000019  59.40999985
H     7.05999947   7.53000021  58.95999908
H     8.17000008   6.84000015  54.89999771
H    16.35000038   6.76000023  55.11000061
H     5.42000008   6.86999989  57.51999664
H     6.11999989   5.78999996  56.45000076
S    17.29999924   8.93999958  53.40000153
C    20.00000000   9.11999989  52.74000168
C    18.75000000   8.63000011  52.43000031
C    18.40999985   8.05999947  51.17000198
C    19.43000031   7.90999985  50.24000168
C    20.72999954   8.36999989  50.52000046
C    21.76000214   8.30999947  49.54000092
C    23.02000046   8.80000019  49.79000092
C    23.36999893   9.38000011  51.04000092
C    22.36000061   9.47000027  51.97000122
C    21.04000092   8.98999977  51.77999878
C    16.97999954   8.11999989  50.87999725
C    16.26000023   8.53999996  52.02000046
C    14.88000011   8.71999931  52.01000214
C    24.75000000   9.88000011  51.42000198
H    25.24594688   9.13607979  52.04347610
H    20.09000015   9.57999992  53.72000122
H    19.22999954   7.62000036  49.20999908
H    21.42000008   7.97999954  48.55999756
H    23.85000038   8.59000015  49.12000275
H    22.53999901   9.96000004  52.91999817
H    14.34000015   8.93000031  52.91999817
H    25.29000092  10.11999989  50.50000000
H    24.69000053  10.81999969  51.97000122
S    13.89000034   7.31999969  48.43000031
C    11.10999966   7.21000004  49.08000183
C    12.39999962   7.62000036  49.33000183
C    12.74000072   8.11999989  50.63000107
C    11.72999954   8.30999947  51.56000137
C    10.39000034   7.97999954  51.25999832
C     9.30000019   8.19000053  52.15999985
C     7.99000025   7.88000011  51.86999893
C     7.68000031   7.26000023  50.63000107
C     8.71000004   6.94000006  49.78000259
C    10.03999901   7.42000008  49.98000336
C    14.15999985   8.25000000  50.90000153
C    14.93000031   7.78999996  49.79000092
C    16.31000137   7.77999973  49.69999695
C     6.25999975   7.07000017  50.14999771
H     5.91915178   7.68778801  49.31917953
H    10.92000008   6.80999994  48.08000183
H    11.89000034   8.69999981  52.56000137
H     9.55000019   8.59000015  53.13999939
H     7.20000029   8.22000027  52.52999878
H     8.50000000   6.38999987  48.86000061
H    16.77999878   7.67000008  48.73000336
H     5.56999969   7.07999992  51.00999832
H     6.19000006   6.02999973  49.84000397
