96

S    16.80999947   8.88000011  59.45000076
C    19.52000046   8.67999935  58.70999908
C    18.19000053   8.50000000  58.39000320
C    17.81999969   7.86000013  57.16999817
C    18.79999924   7.63000011  56.22000122
C    20.15999985   7.94000053  56.44000244
C    21.15999985   7.79999971  55.43000031
C    22.46999931   7.96999979  55.79000092
C    22.86000061   8.48999977  57.04999924
C    21.87999916   8.76000023  57.97999954
C    20.51000214   8.51000023  57.70999908
C    16.38000107   7.71000004  57.08000183
C    15.71000004   8.31999969  58.16999817
C    14.32999992   8.48999977  58.20999908
C    24.30999947   8.76999950  57.41000366
H    24.69352722   8.27993584  58.30490112
H    19.70000076   9.22000027  59.64000320
H    18.54999924   7.13000011  55.27999878
H    20.86999893   7.46000004  54.43000031
H    23.26999855   7.76999998  55.07999802
H    22.15999985   9.10000038  58.96999741
H    13.94999981   8.85999966  59.15999985
H    24.86000061   8.34999943  56.56000137
H    24.40999985   9.85999966  57.39999771
S    13.07999992   6.94000006  54.77000427
C    10.39000034   7.16000032  55.47999954
C    11.71000004   7.42000008  55.79000092
C    12.15999985   7.92000008  57.04999924
C    11.18999958   8.23999977  57.97000122
C     9.81999969   8.07999992  57.65999603
C     8.76999950   8.47000027  58.54000092
C     7.42999983   8.23000050  58.31999969
C     7.03000021   7.57000017  57.11999893
C     7.99000025   7.30000019  56.18000031
C     9.38000011   7.46999979  56.43000031
C    13.61999989   7.99000025  57.11999893
C    14.27000046   7.36999989  56.02000427
C    15.65000057   7.22000027  55.98999786
C     5.58000040   7.21000004  56.88000107
H     5.13864040   7.67271566  55.99728012
H    10.08999920   6.61999989  54.59000015
H    11.39999962   8.67000008  58.94000244
H     9.07999992   8.96000004  59.45999908
H     6.67000008   8.34999943  59.08000183
H     7.69000006   6.90999985  55.20999908
H    16.21999931   6.93000031  55.11000061
H     5.07999992   7.46999979  57.83000183
H     5.60999966   6.11999989  56.73999786
S    13.57999992   4.94999981  51.56999969
C    10.93999958   4.50000000  52.25999832
C    12.27000046   4.26000023  52.54000092
C    12.69000053   3.77999997  53.81999969
C    11.72000027   3.30999994  54.68999863
C    10.34999943   3.51000023  54.40999985
C     9.34000015   3.12000012  55.34000015
C     7.99000025   3.28999996  55.15999603
C     7.63000011   3.95000005  53.95999908
C     8.53999996   4.40000010  53.02999878
C     9.92999935   4.15000010  53.18999863
C    14.11999893   3.94000006  54.00000000
C    14.70999908   4.61999989  52.90000153
C    16.03000069   5.03000021  52.84999847
C     6.21999979   4.34999990  53.60000229
H     5.78621197   3.79532027  52.76798248
H    10.76000023   4.96000004  51.29000092
H    12.06999969   2.82999992  55.59999847
H     9.57999992   2.50999975  56.20999908
H     7.20000029   3.14000010  55.90000153
H     8.30000019   4.98000002  52.15000153
H    16.42000008   5.40000010  51.90999985
H     5.61999989   4.15000010  54.50000000
H     6.09000015   5.42999983  53.44999695
S    17.53000069   3.45000005  56.18000031
C    20.15000153   4.07000017  55.40999985
C    18.81000137   4.02999973  55.08999634
C    18.31999969   4.69000006  53.92000198
C    19.19000053   5.27999973  53.02999878
C    20.58000183   5.09000015  53.22999954
C    21.56999969   5.56999969  52.31999969
C    22.92000008   5.55000019  52.57999802
C    23.36999893   4.90999985  53.76999664
C    22.47999954   4.50000000  54.72999954
C    21.07999992   4.59000015  54.47999954
C    16.86000061   4.67000008  53.92000198
C    16.28999901   3.98999977  55.02999878
C    14.98000050   3.51999998  55.01999664
C    24.86000061   4.77999973  54.02000046
H    25.09573936   4.90144062  55.07725143
H    20.38000107   3.61999989  56.37000275
H    18.92000008   5.77000046  52.09999847
H    21.15999985   5.93999958  51.38000107
H    23.59000015   5.97000027  51.84000015
H    22.88000107   4.13999987  55.68000031
H    14.52000046   2.99000001  55.84999847
H    25.36000061   5.59999990  53.48999786
H    25.20999908   3.84000015  53.56999969
