96

S    17.23999977   8.78999996  59.26000214
C    19.88999939   8.61999989  58.50999832
C    18.59000015   8.30999947  58.20999908
C    18.22000122   7.73000002  56.95000076
C    19.22999954   7.46999979  56.04000092
C    20.56999969   7.81000042  56.31999969
C    21.51000023   7.81000042  55.26000214
C    22.76000023   8.36000061  55.43000031
C    23.12000084   8.85999966  56.70999908
C    22.26000023   8.89000034  57.77999878
C    20.95000076   8.36999989  57.58999634
C    16.77000046   7.86999989  56.81000137
C    16.10999870   8.39999962  57.95000076
C    14.75000000   8.64000034  58.00000000
C    24.47000122   9.44999981  57.04000092
H    25.07244682   8.65390873  57.47748947
H    20.06999969   9.04999924  59.48999786
H    18.86999893   7.17999983  55.06000137
H    21.21000099   7.55000019  54.25000000
H    23.38999939   8.47000027  54.54999924
H    22.44999886   9.38000011  58.73000336
H    14.32000065   8.97000027  58.95000076
H    24.90999985   9.94999981  56.16000366
H    24.30000114  10.22999954  57.80000305
S    13.40999985   7.02000046  54.64000320
C    10.70000076   7.16000032  55.41999817
C    12.02000046   7.50999975  55.61999893
C    12.46000099   8.10999966  56.84000015
C    11.49000072   8.38000011  57.78999710
C    10.11999989   8.06999969  57.60000229
C     9.06000042   8.28999996  58.53000259
C     7.75000000   8.01000023  58.22000122
C     7.32999992   7.49000025  56.95999908
C     8.31999969   7.35000038  56.02000427
C     9.70000076   7.57999992  56.31999969
C    13.90999985   8.23000050  56.95999908
C    14.55000019   7.60999966  55.86000061
C    15.93000031   7.51999950  55.75000000
C     5.98000002   6.93000031  56.59000015
H     5.51562691   7.59441090  55.86128998
H    10.50000000   6.37000036  54.68999863
H    11.65999985   8.76000023  58.79000092
H     9.35999966   8.75000000  59.47000122
H     6.94000006   8.22000027  58.90999603
H     8.05999947   7.00000000  55.02999878
H    16.32999992   7.13999987  54.80999756
H     5.26999998   6.78999996  57.41000366
H     6.15999985   5.96000004  56.10000229
S    17.48999977   9.22000027  53.44999695
C    20.20000076   9.30000019  52.78999710
C    18.90999985   9.04999924  52.38999939
C    18.53000069   8.65999985  51.05999756
C    19.59000015   8.45000076  50.20000076
C    20.95000076   8.64999962  50.54000092
C    21.98999786   8.23999977  49.66999817
C    23.26000023   8.55000019  50.11000061
C    23.54999924   9.17000008  51.35000229
C    22.56999969   9.46000004  52.28000259
C    21.27000046   9.06999969  51.88000107
C    17.09000015   8.53999996  50.89000320
C    16.39999962   8.85999966  52.09000015
C    15.01999950   8.78000069  52.21000290
C    24.94999886   9.68999958  51.53999710
H    25.53343391   9.03541279  52.18746948
H    20.45000076   9.77999973  53.73000336
H    19.34000015   7.88000011  49.29999924
H    21.70000076   7.88000011  48.68999863
H    24.11999893   8.22000027  49.52999878
H    22.69000053  10.01000023  53.20999908
H    14.50000000   9.01000023  53.13999939
H    25.36999893   9.81000042  50.52999878
H    24.82999992  10.67000008  52.01000214
S    13.96999931   7.40000010  48.63999939
C    11.23000050   7.26000023  49.36000061
C    12.53999901   7.55999994  49.66999817
C    12.86000061   8.19000053  50.91999817
C    11.87000084   8.39999962  51.86000061
C    10.52000046   8.19000053  51.50000000
C     9.42000008   8.45000076  52.36999893
C     8.10000038   8.34999943  52.01000214
C     7.78999996   7.73000002  50.77000046
C     8.80999947   7.36999989  49.92000198
C    10.18000031   7.55999994  50.25000000
C    14.28999996   8.36999989  51.09000397
C    15.00000000   8.14999962  49.87999725
C    16.39000130   8.17000008  49.73999786
C     6.37000036   7.46000004  50.31999969
H     6.02098227   8.17940426  49.57922745
H    11.00000000   6.75000000  48.41999817
H    12.18000031   8.80000019  52.83000183
H     9.70000076   8.92000008  53.30999756
H     7.30000019   8.71000004  52.64999771
H     8.65999985   6.91999960  48.94000244
H    16.94000053   7.81000042  48.88000107
H     5.73999977   7.32999992  51.22000122
H     6.39999962   6.51000023  49.77000427
