96

S    16.88999939   9.22000027  58.99000168
C    19.63000107   9.22000027  58.23999786
C    18.31999969   8.89999962  57.97000122
C    17.98999977   8.32999992  56.70000076
C    18.96000099   8.13000011  55.72999954
C    20.30999947   8.40999985  56.04999924
C    21.35999870   8.10999966  55.13000107
C    22.63999939   8.56000042  55.40000153
C    22.93000031   9.30999947  56.56999969
C    21.94999886   9.63000011  57.48000336
C    20.65000153   9.11000061  57.25999832
C    16.54999924   8.14999962  56.56999969
C    15.82999992   8.55000019  57.72999573
C    14.46000004   8.40999985  57.88999939
C    24.37000084   9.61000061  56.88999939
H    24.88860512   8.87116528  57.50095749
H    19.97999954   9.43000031  59.23999786
H    18.59000015   7.59000015  54.86000061
H    21.27000046   7.53000021  54.22000122
H    23.38999939   8.36000061  54.64000320
H    22.07999992  10.21999931  58.39000320
H    13.94000053   8.76999950  58.77999878
H    24.94999886   9.88000011  56.00000000
H    24.11000061  10.46000004  57.51999664
S    13.35000038   7.31999969  54.19000244
C    10.65999985   7.17000008  54.86999893
C    11.95000076   7.40999985  55.27999878
C    12.30999947   7.86999989  56.59000015
C    11.30000019   8.01999950  57.51999664
C     9.94999981   7.71000004  57.22000122
C     8.89000034   7.68000031  58.15999985
C     7.62000036   7.23999977  57.84000015
C     7.37999964   6.84000015  56.50000000
C     8.36000061   6.86999989  55.52999878
C     9.67000008   7.28999996  55.86999893
C    13.75000000   7.96000004  56.77000046
C    14.42000008   7.60999966  55.56999969
C    15.80999947   7.69000006  55.48999786
C     6.01000023   6.40999985  56.02000427
H     5.54716635   7.10781145  55.32218933
H    10.52999973   6.65999985  53.90999603
H    11.46999931   8.27000046  58.56999969
H     9.15999985   7.79999971  59.20999908
H     6.83000040   7.20000029  58.59000397
H     8.14000034   6.44999981  54.54999924
H    16.31000137   7.51999950  54.54000092
H     5.38999987   6.37000036  56.93000031
H     6.19000006   5.40999985  55.59000015
S    17.51000023   9.50000000  53.11999893
C    20.22000122   9.48999977  52.37999725
C    18.90999985   9.21000004  52.05999756
C    18.52000046   8.73999977  50.77000046
C    19.47999954   8.45000076  49.81999969
C    20.85000038   8.60999966  50.14999771
C    21.87999916   8.34999943  49.20999908
C    23.18000031   8.64999962  49.54999924
C    23.52000046   9.25000000  50.79000092
C    22.56000137   9.44999981  51.76000214
C    21.21000099   9.19000053  51.40999603
C    17.06999969   8.63000011  50.65000153
C    16.39000130   9.10000038  51.79999924
C    15.00000000   9.15999985  51.90000153
C    24.93000031   9.72000027  51.06999969
H    25.40568733   9.18751431  51.89357758
H    20.50000000   9.89999962  53.34999847
H    19.12999916   8.21000004  48.81999969
H    21.54000092   7.96999979  48.25000000
H    24.02000046   8.50000000  48.88000107
H    22.75000000  10.06000042  52.63999939
H    14.42999935   9.42000008  52.78999710
H    25.52000046   9.77999973  50.14999771
H    24.84000015  10.77999973  51.33999634
S    13.89000034   7.59999990  48.34000015
C    11.19999981   7.75000000  48.96999741
C    12.50000000   8.01999950  49.34999847
C    12.84000015   8.51000023  50.65000153
C    11.82999992   8.78000069  51.55000305
C    10.47999954   8.56000042  51.18999863
C     9.39999962   8.82000065  52.08000183
C     8.09000015   8.60000038  51.72999954
C     7.82999992   7.88999987  50.52000046
C     8.80999947   7.71000004  49.56999969
C    10.14999962   8.05000019  49.87999725
C    14.27999973   8.67999935  50.80999756
C    14.93000031   8.10000038  49.68999863
C    16.31999969   8.07999992  49.61000061
C     6.44999981   7.40000010  50.13999939
H     5.90367365   8.06694412  49.47305679
H    11.03999996   7.35000038  47.97000122
H    12.02999973   9.13000011  52.56000137
H     9.65999985   9.21000004  53.06000137
H     7.30999994   8.82000065  52.44999695
H     8.60999966   7.39000034  48.54999924
H    16.73999977   7.76000023  48.66000366
H     5.77000046   7.18999958  50.97000122
H     6.63999987   6.38999987  49.75000000
