96

S    16.73999977   8.85999966  59.31000137
C    19.43000031   9.06000042  58.62999725
C    18.17000008   8.61999989  58.27999878
C    17.81999969   8.06999969  57.01000214
C    18.84000015   7.83999968  56.11000061
C    20.13999939   8.31999969  56.38999939
C    21.18000031   8.15999985  55.43000031
C    22.46000099   8.57999992  55.70999908
C    22.78000069   9.07999992  57.00000000
C    21.80999947   9.19999981  57.97000122
C    20.45999908   8.85999966  57.68000031
C    16.36999893   8.01999950  56.86000061
C    15.62999916   8.43000031  58.00000000
C    14.23999977   8.52000046  57.98999786
C    24.20999908   9.46000004  57.32999802
H    24.81451035   8.63502121  57.70692825
H    19.55000114   9.63999939  59.54999924
H    18.67000008   7.32999992  55.17000198
H    20.92000008   7.69000006  54.47999954
H    23.18000031   8.45000076  54.92000198
H    22.04999924   9.30999947  59.02000046
H    13.61999989   8.52999973  58.88999939
H    24.70999908   9.90999985  56.46999741
H    24.07999992  10.19999981  58.13999939
S    13.27999973   7.35000038  54.31999969
C    10.62000084   7.04999971  55.00999832
C    11.85999966   7.50999975  55.38000107
C    12.13000107   8.07999992  56.65999985
C    11.07999992   8.09000015  57.56999969
C     9.76000023   7.79999971  57.16999817
C     8.69999981   7.96000004  58.11000061
C     7.40000010   7.76999998  57.70999908
C     7.11999989   7.25000000  56.42000198
C     8.14000034   7.00000000  55.54000092
C     9.51000023   7.26000023  55.86000061
C    13.55000019   8.34999943  56.77999878
C    14.28999996   7.99000025  55.61999893
C    15.67999935   7.88999987  55.65000153
C     5.69000006   6.98999977  56.00999832
H     5.24107027   7.66695738  55.28316116
H    10.44000053   6.67000008  54.00000000
H    11.30000019   8.21000004  58.62999725
H     8.89999962   8.40999985  59.08000183
H     6.63999987   7.88999987  58.47999954
H     7.86000013   6.48999977  54.61999893
H    16.27000046   7.73999977  54.75000000
H     5.09999990   6.88000011  56.93000031
H     5.68000031   6.01000023  55.51000214
S    13.86999989   5.21000004  51.38000107
C    11.25000000   4.74000025  52.09999847
C    12.57999992   4.59000015  52.42000198
C    13.07000065   4.01999998  53.63999939
C    12.13999939   3.52999973  54.54000092
C    10.76000023   3.58999991  54.23999786
C     9.77000046   3.07000017  55.13000107
C     8.43000031   3.12000012  54.86000061
C     8.00000000   3.77999997  53.68000031
C     8.92000008   4.33999968  52.81000137
C    10.31999969   4.23000002  53.02999878
C    14.48999977   4.28999996  53.81999969
C    15.05000019   4.86000013  52.64999771
C    16.39999962   5.21000004  52.64999771
C     6.51000023   3.88999987  53.46000290
H     6.28835392   3.27511144  52.58771515
H    10.92000008   5.42999983  51.31999969
H    12.51000023   3.07999992  55.47000122
H    10.06999969   2.72000027  56.11000061
H     7.76000023   2.66999984  55.59000015
H     8.60999966   4.90999985  51.93999863
H    16.79000092   5.65000010  51.73999786
H     5.98000002   3.51000023  54.34000015
H     6.15000010   4.92999983  53.39000320
S    17.93000031   3.82999992  56.00999832
C    20.55000114   4.46999979  55.20000076
C    19.19999886   4.42000008  54.92000198
C    18.71999931   4.94999981  53.67000198
C    19.55000114   5.51000023  52.71999741
C    20.94000053   5.44000053  52.95000076
C    21.87000084   5.98999977  52.02000046
C    23.19999886   6.09000015  52.32999802
C    23.67000198   5.60999966  53.57999802
C    22.79000092   5.25000000  54.56999969
C    21.42000008   5.03999996  54.23999786
C    17.27000046   4.94000006  53.72000122
C    16.68000031   4.30999994  54.84000397
C    15.31999969   4.07000017  54.93000031
C    25.12000084   5.84999990  53.95999908
H    25.37802505   5.17627192  54.77707672
H    20.95999908   4.33999968  56.19999695
H    19.26000023   6.11999989  51.86000061
H    21.44000053   6.44000006  51.12999725
H    23.84000015   6.76999998  51.77000046
H    22.95000076   5.38999987  55.63999939
H    14.96000099   3.47000003  55.76000214
H    25.22999954   6.88000011  54.33000183
H    25.82999992   5.73000002  53.13000107
