96

S    17.27000046   8.75000000  58.99000168
C    19.93000031   9.34000015  58.15000153
C    18.68000031   8.82999992  57.90999985
C    18.38000107   8.38999939  56.58000183
C    19.36000061   8.19999981  55.61999893
C    20.72000122   8.50000000  55.91999817
C    21.80000114   8.40999985  54.99000168
C    23.03999901   8.92000008  55.28999710
C    23.29000092   9.50000000  56.56000137
C    22.27999878   9.52000046  57.49000168
C    20.95000076   9.11000061  57.19999695
C    16.95000076   8.14000034  56.40999603
C    16.21999931   8.39999962  57.60000229
C    14.84000015   8.34999943  57.72999573
C    24.64999962   9.98999977  57.00000000
H    25.01249123   9.35741901  57.81027222
H    20.23999977   9.67000008  59.13999939
H    18.97999954   7.94000053  54.64000320
H    21.50000000   8.07999992  54.00000000
H    23.80000114   8.88000011  54.51000214
H    22.39000130   9.92999935  58.48999786
H    14.30999947   8.51000023  58.67000198
H    25.35000038  10.01999950  56.14999771
H    24.56999969  11.05000019  57.28000259
S    13.66000080   7.05999947  54.19000244
C    10.98999977   7.11000013  54.88999939
C    12.28000069   7.44999981  55.24000168
C    12.61999989   7.88000011  56.56000137
C    11.61000061   8.11999989  57.47000122
C    10.27999973   7.76000023  57.16999817
C     9.26999950   7.73999977  58.18000031
C     7.96000004   7.40000010  57.90999985
C     7.68000031   6.80000019  56.65000153
C     8.69999981   6.58999968  55.75000000
C     9.96999931   7.21000004  55.87999725
C    14.07999992   7.95000029  56.63000107
C    14.78999996   7.53999996  55.47000122
C    16.17000008   7.60999966  55.38000107
C     6.23000050   6.63000011  56.25000000
H     5.91687775   7.11391687  55.32486343
H    10.73999977   6.48999977  54.02999878
H    11.97000027   8.38999939  58.46000290
H     9.43000031   8.10999966  59.19000244
H     7.17999983   7.73000002  58.57999802
H     8.48999977   6.03999996  54.82999802
H    16.65999985   7.36999989  54.43999863
H     5.68000031   7.05999947  57.09999847
H     6.02999973   5.55000019  56.22000122
S    17.51000023   9.40999985  52.77000046
C    20.22000122   9.64999962  51.91999817
C    18.92000008   9.25000000  51.70000076
C    18.57999992   8.63000011  50.45000076
C    19.56999969   8.25000000  49.55999756
C    20.92000008   8.56999969  49.86000061
C    22.00000000   8.27999973  48.99000168
C    23.31000137   8.60000038  49.25000000
C    23.64000130   9.25000000  50.47000122
C    22.65000153   9.53999996  51.37000275
C    21.28000069   9.25000000  51.06999969
C    17.13999939   8.43000031  50.37000275
C    16.42000008   8.69999981  51.56000137
C    15.03999901   8.86999989  51.59999847
C    25.06999969   9.61999989  50.80999756
H    25.46358109   9.07614136  51.66872406
H    20.42000008  10.03000069  52.91999817
H    19.30999947   7.68000031  48.67000198
H    21.71999931   7.72000027  48.09999847
H    24.10000038   8.45000076  48.50999832
H    22.85000038  10.10000038  52.28000259
H    14.55000019   9.22999954  52.49000168
H    25.76000023   9.50000000  49.95999908
H    25.17000008  10.69000053  51.04999924
S    13.88000011   7.31999969  48.15000153
C    11.14999962   7.65999985  48.77999878
C    12.46999931   7.79999971  49.12000275
C    12.84999943   8.27000046  50.41999817
C    11.90000057   8.36000061  51.42000198
C    10.55999947   8.02999973  51.11999893
C     9.48999977   8.14000034  52.04999924
C     8.17000008   7.85000038  51.79000092
C     7.78999996   7.42000008  50.48999786
C     8.76000023   7.53999996  49.52000046
C    10.14999962   7.69999981  49.78000259
C    14.28999996   8.52000046  50.47999954
C    14.98999977   8.01000023  49.36000061
C    16.36999893   7.95000029  49.29999924
C     6.32999992   7.17000008  50.19000244
H     6.03715754   7.75568485  49.31861496
H    10.92000008   7.37999964  47.75000000
H    12.18999958   8.73000050  52.39999771
H     9.78999996   8.60999966  52.97999954
H     7.36000013   8.10000038  52.47000122
H     8.53999996   7.50999975  48.46000290
H    16.86000061   7.73999977  48.36000061
H     5.77000046   7.59000015  51.04000092
H     6.05999994   6.11000013  50.13999939
