96

S    16.82999992   8.86999989  59.34000015
C    19.51000023   8.76999950  58.59000397
C    18.20000076   8.43999958  58.30999756
C    17.84000015   7.83999968  57.05999756
C    18.82999992   7.53999996  56.13999939
C    20.19000053   7.79999971  56.39999771
C    21.21999931   7.72000027  55.41999817
C    22.52000046   8.06999969  55.70000076
C    22.82999992   8.57999992  56.97999954
C    21.86000061   8.78999996  57.94000244
C    20.52000046   8.40999985  57.65999603
C    16.39999962   7.63999987  57.04000092
C    15.70000076   8.23000050  58.13000107
C    14.32000065   8.39999962  58.15999985
C    24.26000214   8.97999954  57.30999756
H    24.78638077   8.24733448  57.92173767
H    19.78999901   9.26999950  59.52000046
H    18.54999924   7.39000034  55.10000229
H    21.02999878   7.28999996  54.43999863
H    23.36000061   7.82000017  55.05000305
H    22.13999939   9.35000038  58.81999969
H    13.86000061   8.89999962  59.01000214
H    24.86000061   9.09000015  56.39999771
H    24.28999901  10.01000023  57.69000244
S    13.19000053   6.80999994  54.68999863
C    10.44999981   7.00000000  55.31999969
C    11.76000023   7.25000000  55.63999939
C    12.13999939   7.76999998  56.91999817
C    11.10000038   8.05000019  57.77999878
C     9.75000000   7.65999985  57.56999969
C     8.76999950   7.94000053  58.55999756
C     7.42999983   7.82000017  58.29000092
C     7.04999971   7.22000027  57.05999756
C     8.01999950   6.81999969  56.16000366
C     9.40999985   7.11000013  56.27999878
C    13.57999992   7.86000013  57.11000061
C    14.27999973   7.39000034  55.97000122
C    15.65000057   7.17999983  55.94999695
C     5.59000015   6.90999985  56.81999969
H     5.40605164   7.15054798  55.77290726
H    10.17000008   6.61000013  54.34999847
H    11.33999920   8.46000004  58.75999832
H     8.98999977   8.38000011  59.52999878
H     6.70000029   8.21000004  59.00000000
H     7.76000023   6.39999962  55.20000076
H    16.05999947   6.88000011  54.98000336
H     4.94999981   7.49000025  57.49000168
H     5.36999989   5.86000013  57.00000000
S    13.60999966   4.59000015  51.68000031
C    10.93000031   4.09000015  52.30999756
C    12.25999928   3.93000007  52.63000107
C    12.71000004   3.47000003  53.90999603
C    11.76000023   2.93000007  54.75999832
C    10.39000034   2.94999981  54.40000153
C     9.48999977   2.42000008  55.35999680
C     8.14999962   2.59999990  55.12000275
C     7.67000008   3.01999998  53.85000229
C     8.55000019   3.45000005  52.88999939
C     9.94999981   3.52999973  53.15999985
C    14.13000011   3.68999982  54.10999680
C    14.75999928   4.30999994  53.00000000
C    16.10999870   4.65000010  52.97999954
C     6.17000008   3.17999983  53.68000031
H     5.80763292   3.02368474  52.66395187
H    10.77999973   4.71000004  51.43000031
H    12.03999996   2.56999993  55.75000000
H     9.94000053   2.03999996  56.27999878
H     7.49000025   2.31999993  55.93000031
H     8.27000046   3.93000007  51.95999908
H    16.43000031   5.07999992  52.04000092
H     5.65999985   2.45000005  54.31999969
H     5.91000032   4.18000031  54.05000305
S    17.50000000   3.23000002  56.39999771
C    20.17000008   3.81000018  55.63999939
C    18.81000137   3.98000002  55.45999908
C    18.37000084   4.55000019  54.22000122
C    19.29999924   4.92000008  53.27000046
C    20.69000053   4.82999992  53.47999954
C    21.67000008   5.28999996  52.56000137
C    23.00000000   5.10999966  52.84000015
C    23.45999908   4.41000032  53.99000168
C    22.53999901   4.07000017  54.94999695
C    21.14999962   4.30999994  54.75000000
C    16.94000053   4.35999966  54.06999969
C    16.31999969   3.68999982  55.15999603
C    14.96999931   3.35000014  55.18000031
C    24.93999863   4.21999979  54.23999786
H    25.36625862   4.83097267  55.03568268
H    20.53999901   3.19000006  56.45000076
H    18.95000076   5.36000013  52.34000397
H    21.42999840   5.73999977  51.59999847
H    23.77000046   5.40000010  52.12999725
H    22.86000061   3.58000016  55.86999893
H    14.53999996   2.75000000  55.97000122
H    25.55000114   4.42999983  53.36000061
H    24.94999886   3.17000008  54.56999969
