96

S    16.77000046   8.88000011  59.47000122
C    19.45000076   9.02000046  58.68000031
C    18.17000008   8.60999966  58.41999817
C    17.78000069   8.06999969  57.15000153
C    18.76000023   7.85000038  56.19999695
C    20.10000038   8.25000000  56.43000031
C    21.14000130   8.09000015  55.47000122
C    22.40999985   8.55000019  55.72999954
C    22.76000023   9.15000057  56.97000122
C    21.78999901   9.28999996  57.93000031
C    20.45000076   8.85000038  57.69000244
C    16.34000015   7.96000004  57.01000214
C    15.65999985   8.47999954  58.13999939
C    14.27999973   8.56000042  58.27999878
C    24.20999908   9.47000027  57.23999786
H    24.66424179   8.72475815  57.89297485
H    19.70999908   9.67000008  59.51000214
H    18.56999969   7.36999989  55.25000000
H    20.78000069   7.83999968  54.47000122
H    23.21000099   8.52999973  55.00000000
H    22.00000000   9.63999939  58.94000244
H    13.78000069   9.00000000  59.13999939
H    24.82000160   9.61999989  56.35000229
H    24.14999962  10.39999962  57.81000137
S    13.01000023   7.62000036  54.61999893
C    10.32999992   7.71000004  55.33000183
C    11.63000011   7.96000004  55.68000031
C    12.05999947   8.21000004  57.02999878
C    11.03999996   8.46000004  57.91999817
C     9.68999958   8.30999947  57.50999832
C     8.63000011   8.38999939  58.46000290
C     7.30999994   8.06999969  58.23999786
C     6.94999981   7.64999962  56.93000031
C     7.90000010   7.46999979  55.93999863
C     9.23999977   7.82000017  56.24000168
C    13.50999928   8.23000050  57.15999985
C    14.14999962   7.85000038  55.94999695
C    15.53999996   7.76999998  55.87999725
C     5.50000000   7.28999996  56.69000244
H     5.25080776   7.58903027  55.67187500
H    10.00000000   7.51999950  54.31000137
H    11.16000080   8.60999966  58.99000168
H     8.97999954   8.64000034  59.45999908
H     6.51000023   8.15999985  58.96999741
H     7.63999987   7.09999990  54.94999695
H    15.98000050   7.40000010  54.95999908
H     4.79999971   7.78999996  57.36999893
H     5.42000008   6.19999981  56.76000214
S    16.93000031   9.27999973  53.26000214
C    19.69000053   9.25000000  52.71999741
C    18.39999962   8.97000027  52.30999756
C    18.02999878   8.65999985  50.96000290
C    19.07999992   8.38999939  50.10000229
C    20.39999962   8.78999996  50.40999985
C    21.47999954   8.61999989  49.50000000
C    22.73999977   9.06999969  49.79000092
C    23.02999878   9.44999981  51.12999725
C    22.03000069   9.67000008  52.04999924
C    20.69999886   9.30999947  51.72000122
C    16.60000038   8.73000050  50.73999786
C    15.82999992   9.07999992  51.88000107
C    14.45000076   9.22999954  51.86999893
C    24.43000031   9.98999977  51.31000137
H    24.92708206   9.41480637  52.09112930
H    19.75000000   9.59999943  53.75000000
H    18.90999985   7.94000053  49.12000275
H    21.28000069   8.30000019  48.47999954
H    23.40999985   9.19999981  48.94000244
H    22.20000076  10.19999981  52.98999786
H    14.01000023   9.46000004  52.84000015
H    24.89999962   9.92000008  50.33000183
H    24.46000099  11.05000019  51.59000015
S    13.48000050   7.77999973  48.31999969
C    10.69000053   7.96000004  48.81000137
C    11.98999977   8.13000011  49.22000122
C    12.30999947   8.52999973  50.54999924
C    11.30000019   8.64999962  51.49000168
C     9.94999981   8.52000046  51.11000061
C     8.90999985   8.60000038  52.09000015
C     7.60999966   8.47000027  51.66999817
C     7.27999973   8.05000019  50.35999680
C     8.27000046   8.06999969  49.40999985
C     9.64999962   8.22000027  49.73999786
C    13.73000050   8.76000023  50.76000214
C    14.50000000   8.31999969  49.65999985
C    15.88999939   8.40999985  49.56999969
C     5.86999989   7.62000036  50.02999878
H     5.50679874   8.01880932  49.08282471
H    10.42000008   7.53999996  47.84000015
H    11.47999954   8.88000011  52.54000092
H     9.21000004   8.96000004  53.06999969
H     6.76999998   8.60999966  52.35000229
H     8.00000000   7.76000023  48.40000153
H    16.36999893   8.19999981  48.61999893
H     5.22000027   8.00000000  50.83000183
H     5.96000004   6.52999973  50.07999802
