96

S    17.15999985   8.84000015  59.23999786
C    19.92000008   8.85000038  58.52000427
C    18.60999870   8.52000046  58.27000046
C    18.29000092   8.11999989  56.93000031
C    19.29000092   7.95000029  55.98999786
C    20.63999939   8.28999996  56.26999664
C    21.73999977   8.03999996  55.40000153
C    23.00000000   8.52000046  55.66999817
C    23.31000137   9.02000046  56.97000122
C    22.29000092   9.22000027  57.87000275
C    20.94000053   8.89000034  57.54000092
C    16.84999847   8.01000023  56.73999786
C    16.10000038   8.43000031  57.87000275
C    14.73000050   8.61999989  57.88000107
C    24.72999954   9.31999969  57.36999893
H    25.09208870   8.69521809  58.18647766
H    20.17000008   9.25000000  59.50000000
H    18.96000099   7.69999981  54.98000336
H    21.50000000   7.46000004  54.52000046
H    23.72999954   8.51000023  54.86999893
H    22.36999893   9.42000008  58.93000031
H    14.23999977   8.98999977  58.77999878
H    25.40999985   9.11000061  56.52999878
H    24.77000046  10.39000034  57.58999634
S    13.73000050   7.62000036  54.22999954
C    10.95999908   7.76999998  54.85000229
C    12.27000046   8.05999947  55.13999939
C    12.58999920   8.40999985  56.49000168
C    11.61999893   8.52000046  57.47000122
C    10.26000023   8.27000046  57.16999817
C     9.25000000   8.17000008  58.16999817
C     8.06999969   7.51999950  57.87000275
C     7.79999971   6.94000006  56.60999680
C     8.78999996   6.98999977  55.65000153
C     9.96000004   7.77999973  55.84999847
C    14.02999973   8.31999969  56.70000076
C    14.81999969   7.97999954  55.58000183
C    16.20000076   7.79999971  55.52000046
C     6.40999985   6.46000004  56.25000000
H     5.87390947   7.06756926  55.52091217
H    10.53999996   7.20000029  54.02000046
H    11.90999985   8.67000008  58.50000000
H     9.44000053   8.36999989  59.22999954
H     7.30999994   7.62000036  58.63999939
H     8.69999981   6.34000015  54.79000092
H    16.69999886   7.55999994  54.58000183
H     5.89999962   6.34000015  57.22000122
H     6.46000004   5.45000029  55.81999969
S    13.20000076   5.19000006  51.56999969
C    10.52999973   4.69000006  52.14000320
C    11.84000015   4.59999990  52.55000305
C    12.30000019   3.96000004  53.75000000
C    11.32999992   3.51999998  54.62999725
C     9.94999981   3.61999989  54.36000061
C     8.96000004   3.05999994  55.20999908
C     7.63999987   3.12999988  54.82999802
C     7.25000000   3.54999995  53.53000259
C     8.23000050   4.03999996  52.70000076
C     9.61000061   4.11000013  53.04999924
C    13.75000000   3.89999986  53.82999802
C    14.37000084   4.61999989  52.77999878
C    15.72000027   4.94000006  52.72999573
C     5.79999971   3.88000011  53.23999786
H     5.41665840   3.51085615  52.28874588
H    10.21000004   5.19000006  51.23000336
H    11.61000061   3.00999999  55.56000137
H     9.30999947   2.69000006  56.16000366
H     6.80000019   2.87999988  55.48999786
H     7.96000004   4.46999979  51.73999786
H    16.02000046   5.51999998  51.86000061
H     5.17000008   3.42999983  54.01000214
H     5.51999998   4.94000006  53.31999969
S    17.05999947   3.60000014  56.22000122
C    19.70000076   4.30000019  55.68999863
C    18.37000084   4.38000011  55.31999969
C    17.92000008   4.98000002  54.09999847
C    18.82999992   5.56999969  53.23999786
C    20.20999908   5.36000013  53.48999786
C    21.19999886   5.63000011  52.50000000
C    22.55000114   5.42000008  52.67000198
C    22.93000031   4.77999973  53.87000275
C    22.03000069   4.53999996  54.88999939
C    20.63999939   4.80999994  54.75000000
C    16.53000069   4.65000010  53.82999802
C    15.93999958   3.91000009  54.88999939
C    14.59000015   3.54999995  54.89999771
C    24.38999939   4.42999983  54.03999710
H    24.93682289   5.15436459  54.64363480
H    19.97999954   3.84999990  56.63000107
H    18.44000053   5.73999977  52.23999786
H    20.79999924   5.98000002  51.55000305
H    23.25000000   5.49000025  51.84999847
H    22.34999847   4.02999973  55.79000092
H    14.06999969   3.25999999  55.79999924
H    24.89999962   4.28000021  53.08000183
H    24.37999916   3.45000005  54.52999878
