96

S    17.10000038   8.92000008  59.33000183
C    19.85999870   8.98999977  58.72000122
C    18.56999969   8.64000034  58.37999725
C    18.27000046   8.13000011  57.08000183
C    19.31999969   7.85000038  56.23000336
C    20.66999817   8.19000053  56.52000046
C    21.76000214   8.10999966  55.61999893
C    23.02999878   8.52000046  55.94999695
C    23.29000092   9.13000011  57.21000290
C    22.25000000   9.19999981  58.09999847
C    20.92000008   8.76000023  57.81999969
C    16.84000015   8.05999947  56.83000183
C    16.09000015   8.57999992  57.91999817
C    14.70999908   8.76000023  57.85999680
C    24.68000031   9.50000000  57.68000031
H    25.08572388   8.78820419  58.39891434
H    20.03000069   9.59999943  59.59999847
H    19.07999992   7.59999990  55.20000076
H    21.63000107   7.63000011  54.65000153
H    23.87000084   8.34999943  55.27999878
H    22.39000130   9.52000046  59.13000107
H    14.19000053   9.11999989  58.74000168
H    25.30999947   9.59000015  56.79000092
H    24.46000099  10.40999985  58.23999786
S    13.81000042   7.37999964  54.20000076
C    11.10000038   7.17000008  54.79999924
C    12.35000038   7.59999990  55.18000031
C    12.56999969   8.19999981  56.45999908
C    11.46000004   8.48999977  57.23999786
C    10.17000008   8.05999947  56.86999893
C     9.10000038   8.22000027  57.78999710
C     7.82999992   7.76999998  57.50000000
C     7.64999962   7.02000046  56.31000137
C     8.67000008   6.80999994  55.41999817
C     9.96999931   7.35000038  55.63999939
C    14.00000000   8.28999996  56.75000000
C    14.75000000   7.86999989  55.61999893
C    16.11999893   7.63999987  55.70000076
C     6.28000021   6.44000006  56.02000427
H     5.69730902   7.05111504  55.33072281
H    10.88000107   6.63000011  53.88000107
H    11.57999992   8.94999981  58.22000122
H     9.32999992   8.78000069  58.69999695
H     6.97000027   7.92000008  58.13999939
H     8.56000042   6.11999989  54.58000183
H    16.61999893   7.27999973  54.80999756
H     5.86000013   6.28999996  57.02000046
H     6.38999987   5.45000029  55.56000137
S    17.60000038   9.38000011  53.30999756
C    20.31999969   9.19999981  52.70000076
C    19.02000046   8.89999962  52.36999893
C    18.61999893   8.26000023  51.14999771
C    19.63000107   8.03999996  50.22999573
C    20.95000076   8.48999977  50.47999954
C    21.93000031   8.39999962  49.45999908
C    23.22999954   8.80000019  49.69999695
C    23.59000015   9.48000050  50.89000320
C    22.65000153   9.61999989  51.88000107
C    21.35000038   9.04999924  51.73999786
C    17.17000008   8.19000053  50.97999954
C    16.48999977   8.86999989  52.02999878
C    15.13000011   9.13999939  51.97000122
C    25.06000137   9.65999985  51.20999908
H    25.50127602   8.96961784  51.92885208
H    20.50000000   9.78999996  53.60000229
H    19.64999962   7.42000008  49.34000015
H    21.61999893   7.95000029  48.52000427
H    23.98999977   8.71000004  48.93000031
H    22.88000107   9.98000050  52.88000107
H    14.70999908   9.68000031  52.81000137
H    25.72999954   9.80000019  50.34999847
H    25.17000008  10.69000053  51.58000183
S    13.99000072   7.50999975  48.54999924
C    11.30000019   7.50999975  49.20999908
C    12.56000042   7.96000004  49.51000214
C    12.96000004   8.55000019  50.75000000
C    11.95000076   8.73999977  51.66999817
C    10.62999916   8.30999947  51.42000198
C     9.56999969   8.46000004  52.36999893
C     8.28999996   8.01000023  52.15000153
C     7.99000025   7.31999969  50.94999695
C     9.00000000   7.04999971  50.05000305
C    10.29000092   7.62000036  50.20000076
C    14.40999985   8.64999962  50.86999893
C    15.11999989   8.03999996  49.80999756
C    16.48999977   7.82000017  49.81999969
C     6.57000017   6.89000034  50.63000107
H     6.05723476   7.56656551  49.94631195
H    11.06999969   6.90000010  48.33000183
H    12.17000008   9.23999977  52.61000061
H     9.76000023   8.89000034  53.34999847
H     7.62000036   8.21000004  52.98999786
H     8.85000038   6.52999973  49.10999680
H    16.97000122   7.48000050  48.89999771
H     5.98999977   6.96000004  51.55000305
H     6.54999971   5.88000011  50.20000076
