96

S    16.87000084   8.94999981  59.45000076
C    19.59000015   9.15999985  58.86000061
C    18.31999969   8.85000038  58.43000031
C    18.04999924   8.38000011  57.11000061
C    19.06999969   8.22000027  56.18999863
C    20.39999962   8.47999954  56.59000015
C    21.51000023   8.25000000  55.72999954
C    22.80999947   8.53999996  56.10000229
C    23.03999901   9.18000031  57.34000397
C    21.97000122   9.42000008  58.18000031
C    20.63999939   9.00000000  57.90999985
C    16.63999939   8.11999989  56.90000153
C    15.88999939   8.55000019  58.02000046
C    14.50000000   8.67000008  58.04000092
C    24.44999886   9.50000000  57.77999878
H    24.95303154   8.70648575  58.33262253
H    19.64999962   9.55000019  59.86999893
H    18.92000008   7.64999962  55.27000046
H    21.35999870   7.79999971  54.75000000
H    23.65999985   8.22000027  55.50000000
H    22.15999985   9.85999966  59.15000153
H    13.97999954   8.96000004  58.95000076
H    24.93000031   9.68999958  56.81999969
H    24.64999962  10.40999985  58.36999893
S    13.40000057   7.39000034  54.45000076
C    10.62000084   7.40999985  55.11000061
C    11.94000053   7.68000031  55.40000153
C    12.34000015   8.17000008  56.68000031
C    11.36000061   8.34000015  57.63999939
C     9.98999977   8.06999969  57.43000031
C     8.92000008   8.19000053  58.36999893
C     7.63000011   7.88999987  58.02999878
C     7.27999973   7.44000006  56.72000122
C     8.28999996   7.26999998  55.80999756
C     9.63999939   7.59000015  56.11999893
C    13.78000069   8.30999947  56.90000153
C    14.50000000   7.82999992  55.77999878
C    15.88999939   7.76000023  55.77000046
C     5.88999987   7.00000000  56.35000229
H     5.42784500   7.61146641  55.57500458
H    10.39000034   7.09000015  54.09999847
H    11.63000011   8.43999958  58.68999863
H     9.21000004   8.43999958  59.38999939
H     6.94000006   7.76999998  58.86000061
H     8.05999947   6.91999960  54.79999924
H    16.35000038   7.31999969  54.88999939
H     5.26999998   6.94000006  57.25000000
H     5.88000011   5.95000029  56.04000092
S    17.23999977   9.39999962  53.29999924
C    20.00000000   9.32999992  52.60000229
C    18.68000031   9.11999989  52.29000092
C    18.38000107   8.60999966  50.97999954
C    19.37999916   8.46000004  50.04000092
C    20.73999786   8.73000050  50.33000183
C    21.73000145   8.82999992  49.31999969
C    23.02000046   9.22000027  49.59000015
C    23.36000061   9.35000038  50.96000290
C    22.43000031   9.32999992  51.97000122
C    21.05999947   9.10000038  51.68000031
C    16.95000076   8.64000034  50.72000122
C    16.23999977   9.06999969  51.86999893
C    14.85999966   9.22999954  51.84000015
C    24.82000160   9.61000061  51.27999878
H    25.26858521   8.86948204  51.94219589
H    20.27000046   9.70000076  53.59000397
H    19.09000015   8.50000000  48.99000168
H    21.40000153   8.50000000  48.33000183
H    23.72999954   9.48999977  48.81000137
H    22.73999977   9.55000019  52.98999786
H    14.25000000   9.34000015  52.74000168
H    25.45999908   9.68999958  50.38999939
H    24.82000160  10.62999916  51.66999817
S    13.73999977   8.06999969  48.22000122
C    11.03000069   7.96999979  48.88000107
C    12.30999947   8.30999947  49.25000000
C    12.71999931   8.76999950  50.54000092
C    11.67000008   8.98999977  51.40999603
C    10.31000042   8.76000023  51.07999802
C     9.25000000   8.80000019  52.02999878
C     7.96000004   8.38999939  51.76000214
C     7.67000008   7.96000004  50.43000031
C     8.64000034   7.90000010  49.45999908
C     9.98000050   8.23000050  49.79000092
C    14.15999985   8.96000004  50.65999985
C    14.86999989   8.46000004  49.54000092
C    16.25000000   8.31999969  49.54999924
C     6.25000000   7.50000000  50.15999603
H     5.76622486   8.03357506  49.34185028
H    10.73999977   7.55999994  47.90999985
H    11.95000076   9.19999981  52.43000031
H     9.52999973   9.11999989  53.02999878
H     7.20000029   8.47999954  52.51999664
H     8.51000023   7.55000019  48.43999863
H    16.79000092   7.92999983  48.68999863
H     5.69000006   7.63000011  51.09000397
H     6.25999975   6.40999985  50.04000092
