96

S    17.23999977   8.43999958  59.16999817
C    19.97999954   8.47000027  58.46000290
C    18.67000008   8.19999981  58.15000153
C    18.26000023   7.73000002  56.86000061
C    19.20999908   7.50999975  55.87999725
C    20.55999947   7.86999989  56.12999725
C    21.54000092   7.82000017  55.08999634
C    22.88000107   8.01000023  55.33000183
C    23.26000023   8.52999973  56.59999847
C    22.30999947   8.73000050  57.56999969
C    20.93000031   8.40999985  57.41000366
C    16.80999947   7.62000036  56.72999954
C    16.10000038   8.06999969  57.85999680
C    14.72000027   8.28999996  57.88000107
C    24.70999908   8.78000069  56.93999863
H    25.03071785   8.19558144  57.80237579
H    20.26000023   8.92000008  59.40999985
H    18.96000099   7.09999990  54.91000366
H    21.25999832   7.28999996  54.18000031
H    23.61999893   7.59999990  54.65999985
H    22.75000000   8.96000004  58.54000092
H    14.30999947   8.64999962  58.81999969
H    25.34000015   8.39999962  56.11999893
H    24.76000023   9.86999989  56.97000122
S    13.75000000   6.94000006  54.22999954
C    11.05999947   6.63999987  54.94999695
C    12.30999947   7.13000011  55.26000214
C    12.60000038   7.67000008  56.55000305
C    11.51000023   7.88999987  57.37999725
C    10.21000004   7.40999985  57.09999847
C     9.06999969   7.49000025  57.95999908
C     7.82000017   7.07000017  57.57999802
C     7.57000017   6.53999996  56.27999878
C     8.63000011   6.48000002  55.40999985
C     9.96000004   6.80000019  55.81999969
C    14.01999950   7.92000008  56.72999954
C    14.73999977   7.50000000  55.59000015
C    16.10000038   7.23999977  55.58000183
C     6.21999979   6.01000023  55.86000061
H     5.50217247   6.73493481  55.47621155
H    10.85000038   6.09000015  54.02999878
H    11.63000011   8.38000011  58.34000015
H     9.23999977   8.00000000  58.89999771
H     7.02000046   7.36999989  58.26000214
H     8.46000004   6.09000015  54.41999817
H    16.72999954   6.98999977  54.72999954
H     5.78000021   5.51999998  56.75000000
H     6.32000017   5.22000027  55.10000229
S    13.96000004   4.71000004  51.24000168
C    11.26999950   4.18000031  51.95999908
C    12.61000061   4.09000015  52.22000122
C    13.14000034   3.56999993  53.43999863
C    12.25999928   3.07000017  54.38000107
C    10.85999966   3.14000010  54.18000031
C     9.89999962   2.59999990  55.06999969
C     8.56000042   2.51999998  54.77000427
C     8.05999947   2.96000004  53.50999832
C     8.97000027   3.63000011  52.71999741
C    10.36999893   3.71000004  52.95000076
C    14.57999992   3.73000002  53.59000397
C    15.14999962   4.46999979  52.52999878
C    16.47999954   4.88999987  52.56999969
C     6.60000038   2.77999997  53.15999985
H     6.20884609   3.41295862  52.36346817
H    10.90000057   4.59999990  51.02000427
H    12.57999992   2.89000010  55.40000153
H    10.24000072   2.01999998  55.91999817
H     7.82000017   2.01999998  55.38999939
H     8.56000042   4.05999994  51.81000137
H    16.82999992   5.51999998  51.77000046
H     6.37000036   1.72000003  53.00000000
H     6.07999992   3.08999991  54.06999969
S    17.80999947   3.31999993  56.00000000
C    20.45999908   3.72000003  55.34999847
C    19.14999962   3.91999984  55.00000000
C    18.68000031   4.50000000  53.77999878
C    19.63999939   5.03999996  52.94000244
C    21.01000023   4.78999996  53.20000076
C    21.98999786   5.10999966  52.22000122
C    23.29000092   4.69999981  52.45999908
C    23.71999931   4.26999998  53.74000168
C    22.79999924   3.89999986  54.71000290
C    21.42999840   4.17000008  54.41999817
C    17.23999977   4.32999992  53.61000061
C    16.64999962   3.65000010  54.69999695
C    15.29000092   3.32999992  54.72999954
C    25.17999840   3.98000002  53.95999908
H    25.55045509   4.50006485  54.84339905
H    20.66999817   3.09999990  56.22000122
H    19.36000061   5.36000013  51.93999863
H    21.73999977   5.47999954  51.23000336
H    23.98999977   4.86000013  51.65000153
H    23.15000153   3.16000009  55.41999817
H    14.89999962   2.89999986  55.65000153
H    25.76000023   4.15000010  53.04000092
H    25.19000053   2.89999986  54.13999939
