96

S    17.20999908   8.64000034  59.09999847
C    19.82999992   9.11999989  58.25000000
C    18.59000015   8.59000015  57.97999954
C    18.15000153   8.05999947  56.72999954
C    19.13999939   8.00000000  55.76000214
C    20.45999908   8.46000004  55.97000122
C    21.54999924   8.30000019  55.06000137
C    22.84000015   8.71000004  55.31000137
C    23.18000031   9.21000004  56.59000015
C    22.18000031   9.36999989  57.51999664
C    20.82999992   9.01000023  57.25000000
C    16.70999908   7.90000010  56.65000153
C    16.02000046   8.27999973  57.83000183
C    14.63999939   8.34999943  57.91999817
C    24.56999969   9.68999958  56.93000031
H    24.94787216   9.03407001  57.71426392
H    20.10000038   9.68000031  59.13999939
H    18.84000015   7.62000036  54.79000092
H    21.17000198   7.78999996  54.18000031
H    23.61999893   8.56999969  54.56999969
H    22.34000015   9.77000046  58.52000427
H    14.09999943   8.60999966  58.82999802
H    25.15000153   9.76000023  55.98999786
H    24.51999855  10.72999954  57.28000259
S    13.27999973   7.30999994  54.41999817
C    10.67000008   6.90999985  55.27999878
C    11.95000076   7.28999996  55.59000015
C    12.38000011   7.76999998  56.86999893
C    11.38000011   7.95000029  57.81000137
C    10.03999901   7.57000017  57.58999634
C     8.96000004   7.78999996  58.48999786
C     7.67000008   7.36000013  58.27999878
C     7.34000015   6.94000006  56.97000122
C     8.31999969   6.84000015  56.00999832
C     9.70000076   7.00000000  56.31000137
C    13.82999992   7.96999979  56.84999847
C    14.51000023   7.69999981  55.63000107
C    15.88999939   7.63000011  55.54000092
C     5.93999958   6.42000008  56.68000031
H     5.45712090   7.01649809  55.90597153
H    10.38000011   6.70000029  54.25000000
H    11.50000000   8.48999977  58.75000000
H     9.19999981   8.25000000  59.43999863
H     6.94999981   7.46000004  59.09000015
H     8.07999992   6.65000010  54.97000122
H    16.39999962   7.42000008  54.59999847
H     5.32999992   6.43000031  57.58999634
H     6.01000023   5.36000013  56.39999771
S    17.46999931   9.19999981  53.02999878
C    20.17000008   9.55000019  52.25000000
C    18.88000107   9.15999985  51.95000076
C    18.53000069   8.65999985  50.65999985
C    19.52999878   8.57999992  49.71000290
C    20.86999893   8.93999958  49.98000336
C    21.83000183   8.85000038  48.93000031
C    23.09000015   9.30000019  49.25000000
C    23.45000076   9.89000034  50.48999786
C    22.53000069   9.92000008  51.50000000
C    21.19999886   9.44999981  51.27999878
C    17.11000061   8.34999943  50.56000137
C    16.38000107   8.69000053  51.72999954
C    15.00000000   8.76999950  51.81000137
C    24.86999893  10.34999943  50.77000046
H    25.41822243   9.65938091  51.41077805
H    20.42000008  10.14000034  53.11999893
H    19.38999939   8.32999992  48.66000366
H    21.50000000   8.63000011  47.91999817
H    23.78999901   9.07999992  48.44999695
H    22.82999992  10.39000034  52.43999863
H    14.61999989   9.06000042  52.78999710
H    25.45000076  10.64000034  49.88999939
H    24.63999939  11.26999950  51.31000137
S    13.81000042   7.59000015  48.22999954
C    11.13000011   7.50000000  48.95000076
C    12.42000008   7.83999968  49.29000092
C    12.77999973   8.32999992  50.59000015
C    11.78999996   8.50000000  51.53999710
C    10.44000053   8.21000004  51.23000336
C     9.39999962   8.38000011  52.18000031
C     8.10000038   8.01000023  51.91999817
C     7.83999968   7.36000013  50.68000031
C     8.76999950   7.31999969  49.66999817
C    10.11000061   7.71000004  49.92000198
C    14.22999954   8.34000015  50.72000122
C    14.93000031   7.92000008  49.56999969
C    16.31999969   7.96000004  49.47000122
C     6.38999987   6.98999977  50.40999985
H     5.90622663   7.90774584  50.07562637
H    10.82999992   7.03999996  48.01000214
H    12.10999966   8.76999950  52.54000092
H     9.68999958   8.64000034  53.20000076
H     7.26999998   7.96000004  52.62000275
H     8.56000042   6.96000004  48.67000198
H    16.76000023   7.90000010  48.47999954
H     5.92000008   6.67000008  51.35000229
H     6.21999979   6.09000015  49.81999969
