96

S    17.02000046   8.26000023  59.38999939
C    19.75000000   7.86999989  58.75999832
C    18.42000008   7.82000017  58.40000153
C    17.92000008   7.53000021  57.09000015
C    18.94000053   7.25000000  56.19999695
C    20.32999992   7.40999985  56.44000244
C    21.35000038   7.30000019  55.45999908
C    22.67000008   7.53000021  55.76000214
C    23.11000061   7.86000013  57.06999969
C    22.11999893   8.10000038  57.98999786
C    20.76000023   7.75000000  57.77000046
C    16.46999931   7.46999979  56.95000076
C    15.81999969   7.88999987  58.13999939
C    14.45000076   8.13000011  58.16999817
C    24.51000023   8.34000015  57.35000229
H    25.02661324   7.80923367  58.14968872
H    20.09000015   8.22000027  59.73999786
H    18.60000038   7.17999983  55.17000198
H    20.96999931   7.16000032  54.43999863
H    23.42000008   7.48000050  54.98000336
H    22.37999916   8.71000004  58.85000229
H    14.01000023   8.47000027  59.09999847
H    25.17999840   8.36999989  56.47999573
H    24.37999916   9.35999966  57.74000168
S    13.23999977   6.67999983  54.66999817
C    10.62000084   6.61000013  55.27999878
C    11.85999966   6.93000031  55.76000214
C    12.18999958   7.57000017  57.01000214
C    11.10999966   7.60999966  57.88000107
C     9.77999973   7.26000023  57.54000092
C     8.64999962   7.46000004  58.37999725
C     7.36999989   7.09999990  58.02000046
C     7.17999983   6.51999998  56.73999786
C     8.23000050   6.34000015  55.86999893
C     9.55999947   6.72999954  56.22000122
C    13.63000011   7.63000011  57.15000153
C    14.30999947   7.09000015  56.03000259
C    15.69000053   6.96000004  55.90999985
C     5.79999971   6.02999973  56.35000229
H     5.26552677   6.64998865  55.63024521
H    10.42000008   6.32000017  54.25000000
H    11.26999950   8.02999973  58.87000275
H     8.80000019   7.96000004  59.33000183
H     6.53999996   7.28999996  58.68999863
H     8.14000034   5.88999987  54.88999939
H    16.11999893   6.51000023  55.01999664
H     5.23999977   6.02999973  57.29999924
H     5.92000008   5.00999975  55.96000290
S    17.19000053   8.56999969  53.41999817
C    19.85999870   8.88000011  52.70999908
C    18.60999870   8.43999958  52.35000229
C    18.37000084   7.95000029  51.03000259
C    19.40000153   7.88000011  50.10000229
C    20.69999886   8.27000046  50.47999954
C    21.81999969   8.03999996  49.61999893
C    23.06999969   8.52000046  49.89999771
C    23.35000038   8.97999954  51.22000122
C    22.32000160   8.98999977  52.12999725
C    20.95999908   8.76000023  51.81000137
C    16.95000076   7.67000008  50.89000320
C    16.21000099   8.05000019  52.04000092
C    14.85000038   8.34999943  52.01000214
C    24.76000023   9.42000008  51.56999969
H    25.18752480   8.71458530  52.28253937
H    20.03999901   9.27999973  53.69999695
H    19.30999947   7.59000015  49.06000137
H    21.65999985   7.55000019  48.67000198
H    23.85999870   8.51000023  49.15999985
H    22.56000137   9.21000004  53.16999817
H    14.37000084   8.76000023  52.88999939
H    25.30999947   9.61999989  50.65000153
H    24.70000076  10.36000061  52.14000320
S    13.71999931   7.40000010  48.34999847
C    11.05999947   7.18999958  49.18000031
C    12.34000015   7.62000036  49.45000076
C    12.64999962   8.10999966  50.76000214
C    11.64000034   8.23999977  51.70000076
C    10.31999969   7.85000038  51.38000107
C     9.26999950   7.90000010  52.35000229
C     8.01000023   7.39000034  52.11000061
C     7.67000008   6.96000004  50.80999756
C     8.64999962   6.88000011  49.84000397
C     9.98999977   7.30000019  50.08999634
C    14.09999943   8.19999981  50.84000015
C    14.81999969   7.81000042  49.68000031
C    16.18000031   7.55000019  49.72999954
C     6.32000017   6.32999992  50.56999969
H     5.82291794   6.90519476  49.78887177
H    10.95000076   6.56000042  48.29999924
H    11.97000027   8.39999962  52.71999741
H     9.52999973   8.34000015  53.30999756
H     7.23000002   7.31999969  52.85999680
H     8.30000019   6.38000011  48.94000244
H    16.64999962   7.27999973  48.77999878
H     5.66999960   6.32000017  51.45000076
H     6.48999977   5.28999996  50.24000168
