96

S    16.47999954   8.52000046  59.52999878
C    19.19000053   8.78000069  58.88000107
C    17.93000031   8.34999943  58.52000427
C    17.61000061   7.83999968  57.22000122
C    18.63000107   7.82000017  56.27999878
C    19.93999863   8.23000050  56.60999680
C    21.00000000   8.13000011  55.65999985
C    22.32000160   8.32999992  56.00999832
C    22.59000015   8.78000069  57.32999802
C    21.56999969   9.06000042  58.22000122
C    20.20999908   8.80000019  57.90000153
C    16.18999863   7.53999996  57.04000092
C    15.47000027   7.96000004  58.18999863
C    14.09000015   8.07999992  58.25000000
C    24.03000069   9.06000042  57.69000244
H    24.37756538   8.18753719  58.24327087
H    19.32999992   9.34000015  59.79999924
H    18.70000076   7.09999990  55.47000122
H    20.76999855   7.72000027  54.68999863
H    23.11000061   8.10000038  55.31000137
H    21.90000153   9.30999947  59.22999954
H    13.63999939   8.60999966  59.08000183
H    24.61999893   9.32999992  56.81999969
H    24.13000107   9.94000053  58.33000183
S    12.97999954   6.57999992  54.77000427
C    10.32999992   6.48000002  55.45000076
C    11.56999969   6.98000002  55.76000214
C    11.92000008   7.69000006  56.95999908
C    10.90999985   7.90000010  57.88999939
C     9.57999992   7.59000015  57.55000305
C     8.53999996   7.67000008  58.52000427
C     7.25000000   7.23999977  58.27999878
C     6.97000027   6.57999992  57.04999924
C     7.99000025   6.30999994  56.16000366
C     9.30999947   6.78999996  56.38999939
C    13.35999966   7.71000004  57.11000061
C    14.09000015   7.25000000  55.97999954
C    15.47000027   7.21000004  55.89000320
C     5.64000034   6.00000000  56.65000153
H     5.12215328   6.64553499  55.94062042
H    10.34999943   5.93999958  54.51000214
H    11.07999992   8.09000015  58.95000076
H     8.85999966   8.02999973  59.50000000
H     6.53999996   7.23000002  59.09999847
H     7.77999973   5.73000002  55.27000046
H    15.88999939   6.86999989  54.94999695
H     5.00000000   5.86000013  57.52999878
H     5.82000017   5.05000019  56.13999939
S    17.36999893   8.85999966  53.62999725
C    20.00000000   9.30999947  52.72999573
C    18.73999977   8.80000019  52.50000000
C    18.32999992   8.36000061  51.19999695
C    19.27999878   8.19999981  50.20000076
C    20.61000061   8.61999989  50.45000076
C    21.61999893   8.60999966  49.45000076
C    22.88999939   9.06000042  49.68000031
C    23.22000122   9.63000011  50.93999863
C    22.30999947   9.64999962  51.97000122
C    20.97999954   9.22999954  51.70999908
C    16.87999916   8.23000050  51.12999725
C    16.21000099   8.45000076  52.35000229
C    14.82999992   8.38999939  52.45999908
C    24.69000053   9.88000011  51.20999908
H    25.06093216   9.18806839  51.96613312
H    20.23999977   9.77999973  53.68000031
H    19.04000092   7.85000038  49.20999908
H    21.34000015   8.25000000  48.46000290
H    23.57999992   9.04999924  48.83999634
H    22.43000031  10.06999969  52.97000122
H    14.27999973   8.56000042  53.39000320
H    25.25000000   9.57999992  50.31000137
H    24.72999954  10.95999908  51.39999771
S    13.71000099   7.57999992  48.72000122
C    11.02000046   7.22000027  49.43000031
C    12.28000069   7.63999987  49.77000427
C    12.64000034   8.01999950  51.10000229
C    11.61999893   8.09000015  52.02999878
C    10.29999924   7.69999981  51.69000244
C     9.21000004   7.76000023  52.60000229
C     7.92000008   7.36999989  52.37999725
C     7.63999987   6.76000023  51.11999893
C     8.64999962   6.69000053  50.19000244
C     9.98000050   7.14999962  50.38999939
C    14.06999969   8.22000027  51.30000305
C    14.77000046   7.96999979  50.08999634
C    16.15999985   7.96000004  49.95999908
C     6.17000008   6.61999989  50.79999924
H     5.79294109   7.38123274  50.11702728
H    10.80000019   6.88000011  48.41999817
H    11.69999981   8.46000004  53.04000092
H     9.48000050   8.23000050  53.54999924
H     7.09999990   7.62000036  53.04000092
H     8.31999969   6.57999992  49.16999817
H    16.62999916   8.03999996  48.97999573
H     5.66999960   6.65999985  51.77000046
H     5.92000008   5.71000004  50.25000000
