96

S    17.17000008   8.61999989  59.31999969
C    19.86999893   8.78999996  58.55999756
C    18.57999992   8.38999939  58.26000214
C    18.17000008   8.07999992  56.93000031
C    19.15999985   7.92999983  55.97000122
C    20.52999878   8.11999989  56.25999832
C    21.59000015   7.92999983  55.31999969
C    22.90999985   8.09000015  55.68000031
C    23.26999855   8.63000011  56.95000076
C    22.23999977   8.85000038  57.83000183
C    20.86999893   8.53999996  57.58999634
C    16.72999954   8.01000023  56.77000046
C    16.04999924   8.34999943  57.97000122
C    14.68000031   8.60999966  57.97999954
C    24.65999985   9.06999969  57.31999969
H    25.15129471   8.46478176  58.08186722
H    20.15999985   9.26999950  59.50000000
H    18.86999893   7.81000042  54.93000031
H    21.38000107   7.73000002  54.27999878
H    23.69999886   8.18000031  54.93999863
H    22.46000099   9.15999985  58.85000229
H    14.26000023   9.11999989  58.83999634
H    25.26000023   9.15999985  56.39999771
H    24.63000107  10.07999992  57.74000168
S    13.45999908   7.17999983  54.50000000
C    10.73999977   7.49000025  55.05000305
C    12.03999996   7.64999962  55.45999908
C    12.43000031   8.18000031  56.72999954
C    11.40999985   8.56000042  57.58999634
C    10.06000042   8.28999996  57.27000427
C     9.04999924   8.52000046  58.25000000
C     7.73999977   8.22000027  57.97000122
C     7.39000034   7.71000004  56.69000244
C     8.34000015   7.46000004  55.72000122
C     9.71000004   7.73000002  55.98999786
C    13.88000011   8.21000004  56.90999985
C    14.55999947   7.82000017  55.72999954
C    15.95000076   7.72000027  55.63999939
C     6.02999973   7.11000013  56.44000244
H     5.49642611   7.67914486  55.67877197
H    10.48999977   6.91999960  54.15000153
H    11.61000061   9.09000015  58.52000427
H     9.32999992   8.80000019  59.27000046
H     7.11999989   8.06999969  58.85000229
H     8.18000031   6.90000010  54.79999924
H    16.28999901   7.46000004  54.64000320
H     5.42000008   7.13999987  57.35000229
H     6.03999996   6.09000015  56.03000259
S    13.64999962   5.47999954  51.56000137
C    10.98999977   4.76999998  52.11999893
C    12.31999969   4.77999973  52.50000000
C    12.79000092   4.09000015  53.66000366
C    11.90000057   3.61000013  54.61000061
C    10.52999973   3.55999994  54.26000214
C     9.50000000   3.01999998  55.08999634
C     8.17000008   3.10999990  54.75000000
C     7.77999973   3.68000007  53.50999832
C     8.73000050   4.13000011  52.62000275
C    10.10000038   4.09000015  53.00000000
C    14.23999977   4.23000002  53.74000168
C    14.88999939   4.92999983  52.70000076
C    16.25000000   5.19000006  52.67000198
C     6.40999985   4.30000019  53.34999847
H     5.94694710   3.97942495  52.41677094
H    10.65999985   5.46000004  51.35000229
H    12.25999928   3.22000003  55.56000137
H     9.72000027   2.66000009  56.07999802
H     7.42000008   2.94000006  55.52000046
H     8.64000034   4.74000025  51.72999954
H    16.61999893   5.75000000  51.81000137
H     5.75999975   3.96000004  54.16999817
H     6.58999968   5.38999987  53.34000015
S    17.63000107   3.51999998  55.96000290
C    20.27000046   4.19999981  55.28999710
C    18.92000008   4.30000019  55.02999878
C    18.46999931   5.00000000  53.87000275
C    19.34999847   5.65000010  53.01000214
C    20.72999954   5.46999979  53.22999954
C    21.80000114   5.92000008  52.39999771
C    23.12999916   5.69999981  52.63000107
C    23.57000160   4.86999989  53.68999863
C    22.59000015   4.44000006  54.54999924
C    21.21000099   4.74000025  54.36999893
C    17.05000114   4.71000004  53.70999908
C    16.43000031   3.93000007  54.72000122
C    15.06999969   3.65999985  54.71000290
C    25.02000046   4.56999969  54.00000000
H    25.44209862   5.04217625  54.88711929
H    20.65000153   3.68999982  56.17000198
H    19.00000000   6.17000008  52.12999725
H    21.52000046   6.40999985  51.46999741
H    23.82999802   6.19000006  51.95000076
H    22.89999962   3.79999995  55.38000107
H    14.55999947   3.07000017  55.47000122
H    25.55999947   5.03999996  53.15999985
H    25.19000053   3.48000002  53.90999603
