96

S    16.64999962   8.64000034  59.45000076
C    19.40999985   8.61999989  58.72000122
C    18.09000015   8.32999992  58.46000290
C    17.69000053   7.95000029  57.12999725
C    18.63999939   7.95000029  56.12999725
C    20.03000069   8.14000034  56.37000275
C    20.97999954   8.14999962  55.31000137
C    22.27999878   8.31999969  55.72000122
C    22.72000122   8.69000053  57.02000046
C    21.75000000   8.88000011  57.97000122
C    20.39999962   8.51000023  57.70999908
C    16.25000000   7.77999973  57.04999924
C    15.50000000   8.13000011  58.20000076
C    14.11000061   8.18000031  58.22999954
C    24.13000107   9.15999985  57.29000092
H    24.57263756   8.59599495  58.11101913
H    19.63000107   9.03999996  59.69999695
H    18.31999969   7.79999971  55.10000229
H    20.66999817   8.02999973  54.27999878
H    22.89999962   8.43000031  54.84000397
H    22.01999855   9.19000053  58.97999573
H    13.53999996   8.75000000  58.95999908
H    24.77000046   9.11000061  56.39999771
H    24.02000046  10.21999931  57.56999969
S    13.04999924   6.85999966  54.68999863
C    10.31000042   6.93000031  55.40000153
C    11.61999893   7.26999998  55.65000153
C    11.97000027   7.94000053  56.86000061
C    11.03000069   8.11999989  57.85999680
C     9.70000076   7.68000031  57.63999939
C     8.71999931   7.75000000  58.68000031
C     7.42000008   7.36000013  58.44999695
C     7.05999947   6.71000004  57.25000000
C     7.94000053   6.76000023  56.18999863
C     9.30000019   7.13999987  56.37000275
C    13.40999985   7.96000004  57.02999878
C    14.15999985   7.42000008  55.96000290
C    15.54999924   7.39000034  55.90000153
C     5.61999989   6.30999994  56.98999786
H     5.25191689   6.79133940  56.08394623
H    10.14000034   6.26999950  54.54999924
H    11.38000011   8.47999954  58.81999969
H     9.03999996   8.09000015  59.65999985
H     6.65999985   7.46000004  59.22000122
H     7.59000015   6.38000011  55.22999573
H    16.14999962   7.11000013  55.04000092
H     4.99000025   6.57999992  57.84000015
H     5.51999998   5.22000027  56.91999817
S    13.22000027   5.19999981  51.59999847
C    10.59999943   4.44000006  52.19999695
C    11.95000076   4.30999994  52.44999695
C    12.43000031   3.61000013  53.60000229
C    11.51000023   3.05000019  54.47000122
C    10.13000011   3.28999996  54.27999878
C     9.22000027   2.73999977  55.22999573
C     7.88000011   3.00999999  55.11000061
C     7.34000015   3.52999973  53.89999771
C     8.22000027   4.02999973  52.97000122
C     9.63000011   3.86000013  53.06000137
C    13.83999920   3.88999987  53.81000137
C    14.44000053   4.63000011  52.75000000
C    15.75000000   5.09999990  52.77999878
C     5.84000015   3.58000016  53.70999908
H     5.55573654   3.36680245  52.67954254
H    10.26000023   5.07000017  51.38000107
H    11.80999947   2.33999991  55.24000168
H     9.51000023   2.17999983  56.11000061
H     7.25000000   2.79999995  55.97000122
H     7.85000038   4.56999969  52.09999847
H    16.11999893   5.86000013  52.09999847
H     5.38000011   2.80999994  54.33000183
H     5.50000000   4.55000019  54.09999847
S    17.26000023   3.60000014  56.11999893
C    19.85999870   4.42000008  55.40999985
C    18.51000023   4.42000008  55.15999603
C    17.94000053   5.03000021  54.00000000
C    18.75000000   5.69999981  53.11000061
C    20.13999939   5.73999977  53.37999725
C    21.04000092   6.24000025  52.38999939
C    22.39999962   6.12999964  52.52999878
C    22.95000076   5.23999977  53.48999786
C    22.11000061   4.67999983  54.41999817
C    20.72999954   5.03999996  54.47999954
C    16.51000023   4.76000023  53.89999771
C    15.95999908   4.05000019  55.00000000
C    14.61999989   3.68000007  54.94999695
C    24.43000031   4.94000006  53.52000427
H    24.88771057   5.21176624  54.47118378
H    20.27000046   3.65000010  56.05999756
H    18.19000053   5.98999977  52.22999954
H    20.72000122   6.61000013  51.40999603
H    23.03999901   6.58999968  51.77999878
H    22.46999931   4.02999973  55.21999741
H    14.22000027   3.17999983  55.84000015
H    24.84999847   5.60999966  52.75000000
H    24.56000137   3.88000011  53.27000046
