96

S    16.95999908   8.67999935  59.38000107
C    19.54000092   9.13000011  58.46000290
C    18.27000046   8.67999935  58.18000031
C    17.93000031   8.28999996  56.84000015
C    18.89999962   8.10999966  55.86999893
C    20.22000122   8.52000046  56.16000366
C    21.28000069   8.27000046  55.22999573
C    22.56000137   8.65999985  55.52999878
C    22.82999992   9.17000008  56.83000183
C    21.87000084   9.40999985  57.77999878
C    20.53999901   9.02000046  57.47000122
C    16.48999977   8.11999989  56.83000183
C    15.81999969   8.43000031  58.04999924
C    14.44000053   8.52999973  58.13999939
C    24.23999977   9.53999996  57.23999786
H    24.63176346   8.92742443  58.05201721
H    19.73999977   9.61000061  59.41999817
H    18.55999947   7.79999971  54.87999725
H    21.00000000   7.88000011  54.26000214
H    23.35000038   8.25000000  54.89999771
H    22.20999908   9.77999973  58.75000000
H    13.96999931   8.71999931  59.09999847
H    24.89000130   9.53999996  56.35000229
H    24.25000000  10.59000015  57.54000092
S    13.31999969   7.68000031  54.38000107
C    10.67000008   7.82999992  54.99000168
C    11.95000076   8.05999947  55.44000244
C    12.27000046   8.34000015  56.81000137
C    11.23000050   8.43999958  57.70999908
C     9.90999985   8.09000015  57.31999969
C     8.85000038   7.92999983  58.25000000
C     7.63000011   7.39000034  57.91999817
C     7.42999983   7.00000000  56.56999969
C     8.36999989   7.22000027  55.59000015
C     9.63000011   7.76999998  55.94999695
C    13.71999931   8.34000015  56.95000076
C    14.39000034   7.92999983  55.77000046
C    15.77000046   7.76000023  55.68999863
C     6.05000019   6.43000031  56.31999969
H     5.55172253   6.91404152  55.48004532
H    10.40999985   7.44000006  54.01000214
H    11.51000023   8.55000019  58.75999832
H     9.06999969   8.14000034  59.29999924
H     6.90999985   7.05999947  58.66000366
H     8.27999973   6.72999954  54.61999893
H    16.21999931   7.67000008  54.69999695
H     5.47999954   6.63999987  57.22999954
H     5.98000002   5.36999989  56.04000092
S    17.15999985   9.34000015  52.93000031
C    19.86999893   9.64999962  52.18999863
C    18.60000038   9.21000004  51.90000153
C    18.32999992   8.64999962  50.61000061
C    19.34000015   8.55000019  49.65999985
C    20.63999939   9.03999996  49.88999939
C    21.73999977   8.96000004  48.99000168
C    23.02000046   9.35999966  49.29999924
C    23.25000000   9.80000019  50.63000107
C    22.19000053  10.07999992  51.46999741
C    20.88999939   9.56999969  51.19999695
C    16.88999939   8.63000011  50.40000153
C    16.13000107   8.97000027  51.53999710
C    14.73999977   9.09000015  51.56999969
C    24.63000107  10.29999924  51.00999832
H    25.12943077   9.62933636  51.70919800
H    20.13000107  10.24000072  53.06000137
H    19.15999985   8.21000004  48.63999939
H    21.54999924   8.52000046  48.02000046
H    23.78999901   9.43000031  48.54000092
H    22.36999893  10.57000065  52.43000031
H    14.19999981   9.22999954  52.50000000
H    25.19000053  10.42000008  50.07999802
H    24.46000099  11.35000038  51.29000092
S    13.67000008   8.05999947  47.88999939
C    10.93000031   7.82999992  48.61000061
C    12.22000027   8.19000053  48.90999603
C    12.60000038   8.63000011  50.21999741
C    11.57999992   8.82000065  51.13999939
C    10.26999950   8.36000061  50.86999893
C     9.26999950   8.48999977  51.86999893
C     8.00000000   8.03999996  51.59000015
C     7.60999966   7.59000015  50.30000305
C     8.56999969   7.36999989  49.34000015
C     9.90999985   7.79999971  49.59000015
C    14.02999973   8.82999992  50.38999939
C    14.75999928   8.48999977  49.22999954
C    16.13999939   8.32999992  49.25000000
C     6.15999985   7.30000019  50.00000000
H     5.81182098   7.74765825  49.06915283
H    10.70000076   7.51999950  47.58999634
H    11.85999966   9.15999985  52.12999725
H     9.56999969   8.86999989  52.84000015
H     7.28999996   8.11999989  52.41000366
H     8.34000015   7.34000015  48.27999878
H    16.59000015   7.94000053  48.34999847
H     5.50000000   7.63000011  50.80999756
H     6.05999994   6.21000004  50.04000092
