96

S    16.35000038   8.65999985  59.51000214
C    19.07999992   8.45000076  58.95999908
C    17.79000092   8.11999989  58.61999893
C    17.38999939   7.65999985  57.31999969
C    18.34000015   7.63999987  56.31999969
C    19.70000076   7.85000038  56.63999939
C    20.69999886   7.67000008  55.63999939
C    22.00000000   8.02999973  55.89000320
C    22.29999924   8.76999950  57.05999756
C    21.40999985   8.78999996  58.11000061
C    20.06000137   8.36999989  57.93000031
C    15.95999908   7.68000031  57.09000015
C    15.24000072   8.17000008  58.20999908
C    13.86999989   8.40999985  58.15999985
C    23.71999931   9.23999977  57.30999756
H    24.15349388   8.52225018  58.00643158
H    19.22999954   8.97999954  59.88999939
H    18.13999939   7.37999964  55.27999878
H    20.38000107   7.40999985  54.64000320
H    22.72000122   7.96000004  55.06999969
H    21.60000038   9.13000011  59.12000275
H    13.40000057   8.65999985  59.09999847
H    24.27999878   9.39999962  56.38999939
H    23.61000061  10.17000008  57.88000107
S    12.79999924   6.90000010  54.64000320
C    10.21999931   6.51000023  55.45999908
C    11.44999981   7.03000021  55.77999878
C    11.72999954   7.76000023  56.97999954
C    10.72000027   7.85000038  57.91999817
C     9.39000034   7.48000050  57.56999969
C     8.30000019   7.55000019  58.47000122
C     7.00000000   7.26999998  58.11000061
C     6.77999973   6.86999989  56.76000214
C     7.77999973   6.80000019  55.83000183
C     9.13000011   6.90000010  56.27999878
C    13.15999985   8.01000023  57.02000046
C    13.89000034   7.51999950  55.90999985
C    15.26999950   7.32999992  55.91999817
C     5.38999987   6.42000008  56.36000061
H     4.91560888   7.10680580  55.65903473
H     9.94000053   6.21999979  54.45000076
H    10.88999939   8.01000023  58.97999573
H     8.52000046   7.85000038  59.48999786
H     6.14000034   7.13999987  58.75000000
H     7.59000015   6.24000025  54.91000366
H    15.78999996   7.00999975  55.01999664
H     4.81999969   6.37000036  57.29000092
H     5.44000053   5.44000053  55.86999893
S    13.94000053   5.32000017  51.69000244
C    11.30000019   4.53999996  52.23999786
C    12.63000011   4.53000021  52.57999802
C    13.03999996   3.95000005  53.82999802
C    12.05000019   3.31999993  54.55999756
C    10.67999935   3.28000021  54.20000076
C     9.68999958   2.66000009  55.00999832
C     8.34999943   2.71000004  54.72000122
C     7.92999983   3.40999985  53.55999756
C     8.85999966   3.96000004  52.70999908
C    10.25000000   3.97000027  53.01000214
C    14.48999977   4.05000019  53.95999908
C    15.10000038   4.80999994  52.93000031
C    16.43000031   5.19999981  52.95000076
C     6.48000002   3.79999995  53.37999725
H     5.97560310   3.47320724  52.47066116
H    11.00000000   4.92000008  51.26999664
H    12.35000038   2.91000009  55.52000046
H     9.98000050   2.15000010  55.93000031
H     7.68000031   2.29999995  55.47000122
H     8.47999954   4.46000004  51.81999969
H    16.88999939   5.66999960  52.09000015
H     5.88999987   3.50000000  54.26000214
H     6.57000017   4.88999987  53.47000122
S    17.89999962   3.63999987  56.31000137
C    20.53999901   4.05999994  55.43000031
C    19.19000053   4.11000013  55.18000031
C    18.68999863   4.73000002  53.99000168
C    19.54000092   5.32000017  53.08000183
C    20.93000031   5.14999962  53.27999878
C    21.87999916   5.61999989  52.34000397
C    23.25000000   5.55999994  52.51999664
C    23.69999886   5.00000000  53.74000168
C    22.86999893   4.51000023  54.72000122
C    21.45999908   4.59999990  54.50000000
C    17.22999954   4.67999983  53.96999741
C    16.64999962   4.09000015  55.13000107
C    15.31999969   3.72000003  55.04000092
C    25.17000008   5.00999975  54.09999847
H    25.43154144   5.38464022  55.08961487
H    20.97999954   3.50000000  56.25999832
H    19.19000053   5.66999960  52.11000061
H    21.53000069   6.11999989  51.44000244
H    23.90999985   6.15000010  51.88999939
H    23.26000023   4.21999979  55.68999863
H    14.93999958   3.16000009  55.89000320
H    25.81999969   5.55000019  53.40000153
H    25.48999977   3.97000027  54.06999969
