96

S    17.05999947   8.57999992  59.31000137
C    19.76000023   8.82000065  58.67000198
C    18.50000000   8.45000076  58.27000046
C    18.19000053   8.03999996  56.93999863
C    19.23999977   7.88000011  56.04999924
C    20.58000183   8.07999992  56.45000076
C    21.70000076   7.83999968  55.59999847
C    22.96999931   7.96000004  56.10000229
C    23.25000000   8.47000027  57.39999771
C    22.17000008   8.78000069  58.20000076
C    20.82999992   8.53999996  57.78999710
C    16.75000000   7.85000038  56.77000046
C    16.03000069   8.06999969  57.95999908
C    14.63999939   8.05000019  58.08000183
C    24.69000053   8.71999931  57.78999710
H    24.98977852   8.10616493  58.63937378
H    19.98999977   9.40999985  59.55999756
H    19.01000023   7.34000015  55.13999939
H    21.42999840   7.53999996  54.59000015
H    23.78999901   7.64999962  55.45999908
H    22.21999931   9.11999989  59.22999954
H    14.14999962   8.39999962  58.97999573
H    25.29999924   8.53999996  56.90000153
H    24.65999985   9.76000023  58.15000153
S    13.50000000   7.04999971  54.36999893
C    10.82999992   7.00000000  55.05000305
C    12.11999989   7.26000023  55.45999908
C    12.50000000   7.73999977  56.75000000
C    11.44000053   8.01999950  57.60000229
C    10.07999992   7.88999987  57.23999786
C     9.06999969   8.07999992  58.20999908
C     7.76000023   7.75000000  57.94000244
C     7.44000006   7.32999992  56.62000275
C     8.40999985   7.03999996  55.70000076
C     9.77999973   7.36999989  55.93000031
C    13.94999981   7.68000031  56.91999817
C    14.60999966   7.35000038  55.72000122
C    16.00000000   7.46000004  55.65999985
C     6.02999973   6.89000034  56.26999664
H     5.44274855   7.42712021  55.52518845
H    10.64000034   6.32000017  54.22000122
H    11.67000008   8.18000031  58.64999771
H     9.39999962   8.26000023  59.22999954
H     7.00000000   7.86999989  58.69999695
H     8.19999981   6.57999992  54.73999786
H    16.59000015   7.22000027  54.78000259
H     5.53999996   6.91999960  57.25000000
H     6.11000013   5.82999992  56.00000000
S    14.26000023   5.03999996  51.31000137
C    11.59999943   4.42000008  51.86999893
C    12.92000008   4.30999994  52.21000290
C    13.36999989   3.73000002  53.44999695
C    12.42000008   3.25999999  54.33000183
C    11.03000069   3.30000019  54.02999878
C    10.01000023   2.84999990  54.91000366
C     8.69000053   3.08999991  54.61000061
C     8.31999969   3.98999977  53.57999802
C     9.28999996   4.40000010  52.69000244
C    10.65000057   4.01999998  52.84000015
C    14.78000069   3.97000027  53.68999863
C    15.38000011   4.74000025  52.65999603
C    16.68000031   5.22000027  52.70999908
C     6.85999966   4.30000019  53.37999725
H     6.35495853   3.60290098  52.71135330
H    11.26000023   4.86000013  50.93000031
H    12.72999954   2.80999994  55.27000046
H    10.29999924   2.19000006  55.72999954
H     7.95000029   2.61999989  55.26000214
H     8.93000031   4.92999983  51.81000137
H    17.13999939   5.69000006  51.84000015
H     6.48000002   4.44000006  54.38999939
H     6.85999966   5.28999996  52.90000153
S    18.06999969   3.54999995  56.02000427
C    20.75000000   4.30999994  55.40000153
C    19.40000153   4.28000021  55.10000229
C    18.93000031   4.86000013  53.88000107
C    19.77000046   5.29999971  52.87000275
C    21.14999962   5.27999973  53.13999939
C    22.11999893   5.69000006  52.18000031
C    23.45999908   5.75999975  52.45999908
C    23.94000053   5.23000002  53.68000031
C    23.05000114   4.78999996  54.62999725
C    21.63999939   4.80999994  54.40999985
C    17.47999954   4.80999994  53.77999878
C    16.87000084   4.09999990  54.84000397
C    15.52000046   3.76999998  54.86999893
C    25.43999863   5.14999962  53.87000275
H    25.67407417   5.11453390  54.93398285
H    21.15999985   3.89999986  56.31000137
H    19.26000023   5.56999969  51.95000076
H    21.76000214   6.00000000  51.19999695
H    24.14999962   6.01000023  51.65000153
H    23.38999939   4.63999987  55.65000153
H    15.03999901   3.24000001  55.68000031
H    25.82999992   6.03999996  53.36999893
H    25.82999992   4.26000023  53.36999893
