96

S    16.94000053   8.86999989  59.56999969
C    19.63999939   8.80000019  59.02999878
C    18.37000084   8.52000046  58.59000397
C    18.02000046   8.06999969  57.27000427
C    19.02000046   7.86999989  56.33999634
C    20.34000015   8.18000031  56.72999954
C    21.40000153   8.14000034  55.79000092
C    22.63999939   8.65999985  56.10000229
C    22.95000076   9.11999989  57.41000366
C    21.97999954   9.07999992  58.37999725
C    20.65999985   8.65999985  58.04999924
C    16.57999992   7.95000029  57.09999847
C    15.86999989   8.27999973  58.27999878
C    14.48999977   8.36999989  58.20000076
C    24.37000084   9.47000027  57.78999710
H    24.75486183   8.79292870  58.55259705
H    19.80999947   9.22000027  60.01999664
H    18.81999969   7.77999973  55.27000046
H    21.21999931   7.79999971  54.77000427
H    23.43000031   8.82000065  55.37000275
H    22.27000046   9.15000057  59.43000031
H    13.94999981   8.59000015  59.12000275
H    25.03000069   9.56999969  56.91999817
H    24.34000015  10.52000046  58.11999893
S    13.45000076   7.14999962  54.54999924
C    10.77000046   7.00999975  55.19000244
C    12.03999996   7.34000015  55.61000061
C    12.39999962   7.88999987  56.88000107
C    11.33999920   8.10999966  57.74000168
C    10.01999950   7.73999977  57.41000366
C     8.93999958   8.10999966  58.27000046
C     7.63000011   7.82999992  57.98999786
C     7.34000015   7.16000032  56.76000214
C     8.34000015   6.91999960  55.84999847
C     9.72000027   7.13999987  56.13999939
C    13.82999992   8.14000034  56.97999954
C    14.53999996   7.69999981  55.84000015
C    15.92000008   7.57000017  55.91999817
C     5.93999958   6.67999983  56.45999908
H     5.42749596   7.33486605  55.75530624
H    10.57999992   6.61999989  54.19000244
H    11.64000034   8.48999977  58.72000122
H     9.09000015   8.82999992  59.06999969
H     6.94000006   8.09000015  58.79000092
H     8.06999969   6.60000038  54.84000397
H    16.61999893   7.26999998  55.13999939
H     5.32000017   6.56000042  57.36000061
H     6.02999973   5.73000002  55.91999817
S    13.76000023   5.15999985  51.38000107
C    11.03999996   4.55000019  51.95999908
C    12.38000011   4.50000000  52.28000259
C    12.76999950   3.84999990  53.50000000
C    11.79999924   3.38000011  54.36000061
C    10.40999985   3.42999983  54.06999969
C     9.40999985   2.86999989  54.91000366
C     8.09000015   2.96000004  54.54000092
C     7.68000031   3.63000011  53.36000061
C     8.64999962   4.05999994  52.48000336
C    10.03999901   4.00000000  52.80000305
C    14.19000053   4.01999998  53.76999664
C    14.85000038   4.69000006  52.70000076
C    16.21000099   4.97000027  52.71999741
C     6.25999975   4.11999989  53.20999908
H     5.79147148   3.67986727  52.32973480
H    10.62999916   5.22000027  51.20999908
H    12.03999996   2.94000006  55.33000183
H     9.73999977   2.36000013  55.80999756
H     7.32999992   2.64999986  55.26000214
H     8.34999943   4.42999983  51.51000214
H    16.59000015   5.46999979  51.84000015
H     5.71000004   3.84000015  54.10999680
H     6.42000008   5.19999981  53.09000015
S    17.30999947   3.61999989  56.31000137
C    20.00999832   3.97000027  55.75000000
C    18.71000099   4.21999979  55.38999939
C    18.35000038   4.92000008  54.19000244
C    19.38999939   5.51999998  53.50999832
C    20.75000000   5.27999973  53.81999969
C    21.80999947   5.65000010  52.93000031
C    23.09999847   5.35000038  53.27999878
C    23.45999908   4.59999990  54.43000031
C    22.43999863   4.13999987  55.22999573
C    21.07999992   4.48000002  54.97000122
C    16.93000031   4.76999998  53.89999771
C    16.28000069   4.03999996  54.93000031
C    14.93999958   3.67000008  54.88999939
C    24.89000130   4.21000004  54.71000290
H    25.37288094   4.80649948  55.48402786
H    20.17999840   3.28999996  56.58000183
H    19.12999916   5.86999989  52.50999832
H    21.65999985   6.25000000  52.04000092
H    23.88999939   5.52999973  52.55000305
H    22.63999939   3.37000012  55.97000122
H    14.52000046   3.09999990  55.70999908
H    25.45999908   4.28999996  53.76999664
H    24.79000092   3.14000010  54.89999771
