96

S    16.81999969   8.60999966  59.45000076
C    19.52000046   8.71999931  58.77999878
C    18.23999977   8.38999939  58.40000153
C    17.92000008   7.85000038  57.11000061
C    18.98999977   7.55999994  56.27999878
C    20.32999992   7.92000008  56.56000137
C    21.35000038   7.73999977  55.59000015
C    22.65000153   8.05999947  55.91999817
C    22.92000008   8.64000034  57.18999863
C    21.93000031   8.80999947  58.13000107
C    20.55999947   8.56000042  57.83000183
C    16.47999954   7.81000042  56.93999863
C    15.75000000   8.23000050  58.08000183
C    14.37000084   8.34999943  58.08000183
C    24.34000015   9.11000061  57.43000031
H    24.73880959   8.74679852  58.37717438
H    19.67000008   9.21000004  59.73999786
H    18.81999969   7.11999989  55.30000305
H    21.12999916   7.30999994  54.61999893
H    23.47999954   8.10999966  55.22999573
H    22.13000107   9.28999996  59.08000183
H    13.81999969   8.64999962  58.96999741
H    24.99000168   8.80000019  56.60999680
H    24.33000183  10.21000004  57.36000061
S    13.30999947   7.07000017  54.47999954
C    10.60999966   7.09999990  55.13000107
C    11.90000057   7.46000004  55.47999954
C    12.25999928   7.99000025  56.76000214
C    11.26000023   8.26000023  57.68000031
C     9.92000008   7.90999985  57.42000198
C     8.80999947   8.14999962  58.27999878
C     7.50999975   7.83999968  57.94000244
C     7.23000002   7.31999969  56.65000153
C     8.27999973   7.03999996  55.80999756
C     9.63000011   7.35000038  56.12999725
C    13.71000099   8.09000015  56.86999893
C    14.42000008   7.67000008  55.72000122
C    15.78999996   7.48000050  55.77000046
C     5.80999947   6.91999960  56.29000092
H     5.42466736   7.42664051  55.40516663
H    10.29999924   6.74000025  54.15000153
H    11.44999981   8.69000053  58.66000366
H     8.94999981   8.56999969  59.27000046
H     6.69000053   8.01999950  58.61999893
H     8.05999947   6.50000000  54.88999939
H    16.31999969   7.11000013  54.88999939
H     5.13999987   7.17999983  57.11999893
H     5.63000011   5.84000015  56.19999695
S    17.82999992   9.02999973  53.27000046
C    20.50000000   9.19999981  52.49000168
C    19.20999908   8.82000065  52.18000031
C    18.78000069   8.48999977  50.84999847
C    19.79999924   8.31999969  49.93000031
C    21.15999985   8.56999969  50.24000168
C    22.15999985   8.38999939  49.25000000
C    23.47999954   8.67000008  49.52000046
C    23.84000015   9.23999977  50.77999878
C    22.88000107   9.52999973  51.72000122
C    21.53000069   9.11999989  51.52000046
C    17.32999992   8.47000027  50.72999954
C    16.67000008   8.69999981  51.97000122
C    15.29000092   8.64000034  52.09000015
C    25.26000023   9.51000023  51.22000122
H    25.56646538   9.01110363  52.13939285
H    20.68000031   9.73999977  53.41999817
H    19.56999969   7.81000042  49.00000000
H    21.94999886   7.96000004  48.27000046
H    24.26000214   8.47999954  48.79000092
H    23.13999939   9.89999962  52.70000076
H    14.77000046   9.06000042  52.94000244
H    25.95000076   9.28999996  50.40000153
H    25.27000046  10.59999943  51.22000122
S    14.06999969   7.63999987  48.41999817
C    11.38000011   7.39000034  49.20000076
C    12.68000031   7.72000027  49.51000214
C    13.03999996   8.23000050  50.79999924
C    12.06999969   8.59000015  51.72000122
C    10.72999954   8.27000046  51.40999603
C     9.70000076   8.47000027  52.36999893
C     8.40999985   8.06999969  52.11999893
C     8.09000015   7.30999994  50.96000290
C     9.06000042   7.07999992  50.01999664
C    10.39999962   7.53000021  50.21999741
C    14.47999954   8.31999969  50.98999786
C    15.14999962   8.05999947  49.77000427
C    16.53000069   8.10999966  49.64000320
C     6.63000011   7.00999975  50.70999908
H     6.40225935   7.17368841  49.65670013
H    11.26000023   6.98999977  48.20000076
H    12.22000027   9.19000053  52.62000275
H    10.06999969   8.82000065  53.33000183
H     7.67000008   8.40999985  52.84999847
H     8.78000069   6.54999971  49.10999680
H    16.98999977   7.73999977  48.73000336
H     6.02999973   7.75000000  51.25999832
H     6.35999966   6.02999973  51.11999893
