96

S    16.81999969   8.52999973  59.47000122
C    19.55000114   8.46000004  58.89999771
C    18.26000023   8.23999977  58.47999954
C    17.85000038   7.88999987  57.15000153
C    18.89999962   7.59000015  56.30000305
C    20.22000122   7.97999954  56.60999680
C    21.24000168   8.01999950  55.61000061
C    22.50000000   8.51000023  55.89000320
C    22.85000038   8.90999985  57.19999695
C    21.90000153   8.86999989  58.20000076
C    20.58000183   8.43000031  57.93000031
C    16.40999985   7.86000013  56.95999908
C    15.70000076   8.23999977  58.13000107
C    14.30999947   8.34999943  58.18000031
C    24.30999947   9.13000011  57.52999878
H    24.83754921   8.48838711  58.23577881
H    19.72999954   8.69999981  59.94999695
H    18.77000046   7.55000019  55.21999741
H    20.81999969   7.86999989  54.61999893
H    23.22000122   8.65999985  55.08999634
H    22.06999969   9.19999981  59.22000122
H    13.81999969   8.78000069  59.03999710
H    24.87999916   9.03999996  56.59999847
H    24.53000069  10.19000053  57.71999741
S    13.21000004   7.27999973  54.50000000
C    10.52000046   7.05999947  55.15999603
C    11.79999924   7.34000015  55.56999969
C    12.13000107   7.85000038  56.86999893
C    11.14999962   8.00000000  57.84000015
C     9.81999969   7.73999977  57.43000031
C     8.75000000   7.95000029  58.34000015
C     7.44999981   7.63999987  58.01000214
C     7.14999962   7.03999996  56.76000214
C     8.14000034   6.89000034  55.81999969
C     9.50000000   7.14999962  56.14999771
C    13.56999969   7.97999954  57.04999924
C    14.26000023   7.48000050  55.91999817
C    15.65000057   7.42999983  55.86999893
C     5.69000006   6.98999977  56.37000275
H     5.43315649   7.93889427  55.89912033
H    10.18000031   6.67000008  54.20999908
H    11.36000061   8.23000050  58.88000107
H     8.82000065   8.30999947  59.36000061
H     6.63000011   7.78999996  58.72000122
H     7.88000011   6.74000025  54.78000259
H    16.17000008   7.07999992  54.98000336
H     5.09999990   6.97000027  57.29999924
H     5.38999987   6.12999964  55.77000046
S    17.50000000   8.86999989  53.36000061
C    20.12000084   9.23999977  52.50999832
C    18.89000130   8.65999985  52.28000259
C    18.53999901   8.14000034  51.00000000
C    19.51000023   8.02999973  50.00999832
C    20.76000023   8.65999985  50.20999908
C    21.84999847   8.51000023  49.31000137
C    23.11000061   8.92000008  49.65000153
C    23.38999939   9.55999947  50.87999725
C    22.34999847   9.86999989  51.72999954
C    21.07000160   9.30000019  51.45999908
C    17.10000038   7.97999954  50.89000320
C    16.39999962   8.42000008  52.04000092
C    15.01999950   8.56000042  52.02999878
C    24.77000046   9.94999981  51.37000275
H    25.14786530   9.32973099  52.18276596
H    20.34000015   9.70000076  53.47000122
H    19.30999947   7.26999998  49.26000214
H    21.59000015   8.01999950  48.36999893
H    23.92000008   8.80000019  48.94000244
H    22.56000137  10.25000000  52.72999573
H    14.52999973   8.85999966  52.95000076
H    25.38000107  10.03000069  50.45999908
H    24.73999977  10.97000027  51.77999878
S    13.86000061   7.40999985  48.43000031
C    11.13000011   7.37999964  49.15000153
C    12.43999958   7.69000006  49.45000076
C    12.79999924   8.21000004  50.72999954
C    11.77000046   8.42000008  51.62000275
C    10.40999985   8.14999962  51.31999969
C     9.35999966   8.43000031  52.25000000
C     8.06999969   8.05999947  51.93999863
C     7.78999996   7.23999977  50.81999969
C     8.76000023   7.00000000  49.87999725
C    10.06999969   7.51999950  50.07999802
C    14.25000000   8.18000031  50.91999817
C    14.96000099   7.73000002  49.79000092
C    16.35000038   7.67000008  49.73999786
C     6.35999966   6.97000027  50.40000153
H     6.03242731   7.48272228  49.49561691
H    11.00999928   6.81999969  48.22999954
H    11.90999985   8.89000034  52.58999634
H     9.55000019   8.76000023  53.27000046
H     7.20000029   8.30999947  52.54000092
H     8.53999996   6.42000008  48.97999573
H    16.87999916   7.53000021  48.80000305
H     5.61999989   7.13000011  51.19999695
H     6.24000025   5.91000032  50.15999603
