96

S    16.51000023   8.56000042  59.20000076
C    19.15999985   8.61999989  58.44999695
C    17.86999893   8.34999943  58.08000183
C    17.46999931   8.05999947  56.72999954
C    18.45999908   8.10000038  55.77000046
C    19.82999992   8.19000053  56.13999939
C    20.92000008   8.01000023  55.25000000
C    22.25000000   8.14999962  55.54999924
C    22.52000046   8.84000015  56.76000214
C    21.53000069   8.98999977  57.70999908
C    20.19000053   8.57999992  57.48000336
C    16.02000046   7.94000053  56.65000153
C    15.38000011   8.30999947  57.84999847
C    14.00000000   8.45000076  57.93000031
C    23.92999840   9.19999981  57.15999985
H    24.33603477   8.63724995  58.00056458
H    19.27999878   8.93999958  59.48999786
H    18.27999878   7.99000025  54.71000290
H    20.55999947   7.62000036  54.29999924
H    23.02000046   7.78999996  54.87999725
H    21.84000015   9.39000034  58.67000198
H    13.53000069   8.47999954  58.90999603
H    24.61999893   9.10000038  56.31999969
H    23.97999954  10.22999954  57.51999664
S    12.71999931   7.35000038  54.33000183
C    10.08999920   7.13999987  55.07999802
C    11.36000061   7.49000025  55.47000122
C    11.79999924   7.96000004  56.75000000
C    10.77000046   8.10999966  57.65999603
C     9.40999985   7.82999992  57.37999725
C     8.43000031   7.76999998  58.40999985
C     7.17000008   7.34000015  58.08000183
C     6.83000040   7.00999975  56.73999786
C     7.75000000   7.00000000  55.72000122
C     9.10000038   7.30999994  56.07999802
C    13.22999954   8.22000027  56.77999878
C    13.88000011   7.83999968  55.58000183
C    15.26000023   7.72000027  55.48999786
C     5.51000023   6.32999992  56.50000000
H     5.06267405   6.76312542  55.60534668
H    10.03000069   6.76999998  54.06000137
H    11.13999939   8.45000076  58.62999725
H     8.75000000   8.01000023  59.41999817
H     6.53999996   7.09999990  58.93000031
H     7.49000025   6.63000011  54.72999954
H    15.80999947   7.48000050  54.59000015
H     4.84000015   6.56000042  57.34000397
H     5.61999989   5.25000000  56.31999969
S    13.68000031   5.25000000  51.69000244
C    11.03999996   4.67000008  52.30999756
C    12.36999989   4.51000023  52.62000275
C    12.86999893   3.91000009  53.81999969
C    11.95000076   3.31999993  54.68000031
C    10.57999992   3.44000006  54.36999893
C     9.61000061   2.93000007  55.27999878
C     8.27000046   2.92000008  54.95999908
C     7.76999998   3.51999998  53.77999878
C     8.69000053   4.09000015  52.93000031
C    10.08999920   4.11000013  53.18999863
C    14.29999924   4.13000011  54.02999878
C    14.86999989   4.80999994  52.93000031
C    16.22999954   5.09999990  52.95999908
C     6.26999950   3.53999996  53.57999802
H     5.83639479   3.31253505  52.60616684
H    10.62000084   4.99000025  51.35000229
H    12.28999996   2.73000002  55.52000046
H     9.92999935   2.46000004  56.19999695
H     7.59999990   2.45000005  55.66999817
H     8.34000015   4.46000004  51.97000122
H    16.70999908   5.46999979  52.05999756
H     5.66999960   2.96999979  54.31000137
H     6.11999989   4.59000015  53.86000061
S    17.70000076   3.68999982  56.35000229
C    20.36000061   4.09999990  55.63000107
C    19.03000069   4.23000002  55.30000305
C    18.53000069   4.86999989  54.12000275
C    19.45000076   5.32000017  53.20000076
C    20.82999992   5.10999966  53.43999863
C    21.84999847   5.56999969  52.56000137
C    23.19000053   5.44000053  52.81999969
C    23.59999847   4.86999989  54.06000137
C    22.69000053   4.36999989  54.95999908
C    21.31000137   4.59999990  54.69999695
C    17.07999992   4.81999969  54.05000305
C    16.46999931   4.23000002  55.18000031
C    15.13000011   3.88000011  55.12000275
C    25.09000015   4.74000025  54.29999924
H    25.44623947   5.16036272  55.24047089
H    20.62000084   3.63999987  56.56999969
H    19.25000000   5.92000008  52.30999756
H    21.63000107   5.92000008  51.56000137
H    23.97000122   5.75000000  52.14000320
H    22.98000145   3.75999975  55.80999756
H    14.77000046   3.49000001  56.06999969
H    25.65000153   5.23999977  53.50999832
H    25.36000061   3.68000007  54.23999786
