96

S    16.53000069   8.82999992  59.13999939
C    19.22999954   8.97000027  58.43999863
C    17.94999886   8.59000015  58.09999847
C    17.61000061   7.97999954  56.84999847
C    18.64999962   7.65999985  55.98999786
C    19.96999931   8.03999996  56.31000137
C    21.05999947   7.82999992  55.40999985
C    22.30999947   8.30999947  55.68999863
C    22.65000153   8.89000034  56.93999863
C    21.61999893   9.11999989  57.83000183
C    20.29999924   8.69000053  57.55000305
C    16.18000031   8.05999947  56.63999939
C    15.44999981   8.40999985  57.80000305
C    14.09000015   8.64999962  57.84999847
C    24.05999947   9.35999966  57.22999954
H    24.65164948   8.76835155  57.92857361
H    19.43000031   9.39999962  59.41999817
H    18.46999931   7.09000015  55.07999802
H    20.81000137   7.36000013  54.45999908
H    23.08000183   8.25000000  54.92000198
H    21.78999901   9.65999985  58.75000000
H    13.56999969   8.94999981  58.75999832
H    24.56000137   9.51000023  56.25999832
H    24.02000046  10.39000034  57.61000061
S    12.89999962   7.34000015  54.31999969
C    10.21000004   7.32999992  55.00999832
C    11.51000023   7.55999994  55.38999939
C    11.89000034   8.10999966  56.65000153
C    10.88999939   8.28999996  57.58999634
C     9.55000019   8.01999950  57.23999786
C     8.57999992   8.02999973  58.27999878
C     7.26999998   7.68000031  58.04000092
C     6.90000010   7.25000000  56.73999786
C     7.79999971   7.20000029  55.70000076
C     9.15000057   7.57000017  55.93000031
C    13.32999992   8.27000046  56.73999786
C    14.04000092   7.78999996  55.59999847
C    15.42000008   7.69000006  55.52000046
C     5.45000029   7.02000046  56.35000229
H     5.10830259   7.40440989  55.38897705
H    10.01000023   6.97000027  54.00000000
H    11.05999947   8.55000019  58.62999725
H     8.85000038   8.40999985  59.26000214
H     6.54999971   7.75000000  58.85000229
H     7.40999985   6.83000040  54.75999832
H    15.81999969   7.17999983  54.64000320
H     4.77999973   7.50000000  57.08000183
H     5.19000006   5.97000027  56.50000000
S    17.13000107   9.13000011  53.29999924
C    19.85999870   9.13999939  52.61000061
C    18.55999947   8.80999947  52.29000092
C    18.20000076   8.53999996  50.93999863
C    19.19000053   8.31999969  50.00000000
C    20.52999878   8.65999985  50.30000305
C    21.60000038   8.30000019  49.43000031
C    22.89999962   8.61999989  49.73999786
C    23.15999985   9.25000000  50.98999786
C    22.21999931   9.39999962  51.97999954
C    20.88000107   9.06000042  51.63999939
C    16.75000000   8.52000046  50.73999786
C    16.03999901   8.85999966  51.91999817
C    14.65999985   8.96000004  52.02000046
C    24.59000015   9.64999962  51.30000305
H    24.96598053   9.08248329  52.15127563
H    20.09000015   9.67000008  53.53000259
H    18.82999992   7.86999989  49.06999969
H    21.32999802   7.92000008  48.44999695
H    23.67000198   8.45000076  49.00000000
H    22.39999962   9.89999962  52.93000031
H    14.22999954   9.30999947  52.95000076
H    25.25000000   9.51000023  50.43000031
H    24.75000000  10.72000027  51.47999573
S    13.53000069   7.77999973  48.39000320
C    10.90000057   7.59999990  49.00000000
C    12.15000057   7.85000038  49.52000046
C    12.46999931   8.28999996  50.84000015
C    11.40999985   8.43999958  51.72000122
C    10.11000061   8.10999966  51.25999832
C     8.98999977   8.30000019  52.11999893
C     7.71000004   8.26000023  51.63999939
C     7.42000008   7.82000017  50.31999969
C     8.47000027   7.55000019  49.47000122
C     9.81000042   7.73999977  49.89999771
C    13.89999962   8.55000019  50.91999817
C    14.60999966   8.15999985  49.75000000
C    15.98999977   8.05999947  49.65999985
C     6.01999998   7.42999983  49.91000366
H     5.73624325   7.96204376  49.00197601
H    10.69000053   7.30999994  47.97999954
H    11.56000042   8.93000031  52.68000031
H     9.26999950   8.61999989  53.13000107
H     6.94999981   8.51000023  52.37999725
H     8.28999996   7.23000002  48.44999695
H    16.45000076   7.69999981  48.75000000
H     5.33999968   7.67000008  50.72999954
H     6.05999994   6.38000011  49.59999847
