96

S    17.18000031   8.69999981  59.43999863
C    19.82999992   9.00000000  58.52000427
C    18.51000023   8.67999935  58.27000046
C    18.11000061   8.19000053  56.98999786
C    19.02000046   8.21000004  55.93999863
C    20.36000061   8.56999969  56.18000031
C    21.35000038   8.47999954  55.15999603
C    22.65999985   8.80000019  55.41999817
C    23.08000183   9.21000004  56.72000122
C    22.17000008   9.25000000  57.75000000
C    20.79999924   8.96000004  57.49000168
C    16.68000031   7.92999983  56.90999985
C    16.04999924   8.27000046  58.13000107
C    14.67000008   8.36999989  58.25000000
C    24.54999924   9.52999973  56.90999985
H    25.00461960   8.91200161  57.68427277
H    20.05000114   9.44999981  59.48999786
H    18.68999863   8.15999985  54.89999771
H    21.12999916   8.26000023  54.12000275
H    23.40999985   8.84000015  54.64000320
H    22.44999886   9.52999973  58.75999832
H    14.17000008   8.56999969  59.19000244
H    25.00999832   9.48999977  55.91999817
H    24.51999855  10.57999992  57.23999786
S    13.42000008   7.21000004  54.61000061
C    10.75000000   7.07000017  55.33000183
C    12.02999973   7.40999985  55.68999863
C    12.43000031   7.88999987  56.97999954
C    11.39999962   8.01999950  57.88999939
C    10.03999901   7.79999971  57.56000137
C     9.01000023   8.01999950  58.52000427
C     7.69000006   7.81000042  58.20999908
C     7.30999994   7.26000023  56.95000076
C     8.32999992   6.98999977  56.05999756
C     9.70000076   7.31999969  56.25000000
C    13.86999989   8.07999992  57.14000320
C    14.50000000   7.69999981  55.93000031
C    15.88000107   7.53999996  55.83000183
C     5.92000008   6.75000000  56.69000244
H     5.54371023   7.17598867  55.75992584
H    10.53999996   6.61999989  54.36000061
H    11.65999985   8.38000011  58.88000107
H     9.23999977   8.27000046  59.54999924
H     6.88000011   8.00000000  58.90999603
H     8.14999962   6.40999985  55.15999603
H    16.27000046   7.17999983  54.87999725
H     5.32000017   6.90999985  57.58999634
H     5.92000008   5.65000010  56.65999985
S    13.20000076   5.00999975  51.37000275
C    10.54999924   4.72000027  52.30999756
C    11.90000057   4.55999994  52.49000168
C    12.42000008   4.00999975  53.70999908
C    11.52999973   3.56999993  54.66999817
C    10.13000011   3.78999996  54.56999969
C     9.22999954   3.22000003  55.51000214
C     7.88999987   3.17000008  55.20999908
C     7.40000010   3.65999985  53.96999741
C     8.23999977   4.23999977  53.04999924
C     9.63999939   4.28000021  53.29999924
C    13.88000011   4.05999994  53.73000336
C    14.46000004   4.63999987  52.57999802
C    15.77999973   5.07000017  52.52999878
C     5.97000027   3.37000012  53.56999969
H     5.66461086   3.78902245  52.61122131
H    10.06000042   5.01999950  51.38999939
H    11.97999954   2.89999986  55.38999939
H     9.73999977   2.73000002  56.33999634
H     7.17000008   2.61000013  55.79000092
H     7.96000004   4.59000015  52.05999756
H    16.18999863   5.64000034  51.70999908
H     5.92000008   2.26999998  53.54999924
H     5.26999998   3.63000011  54.36999893
S    17.21999931   3.75999975  56.02000427
C    19.85999870   4.46999979  55.34000015
C    18.51000023   4.48999977  55.04000092
C    18.01000023   4.98000002  53.79000092
C    18.84000015   5.65999985  52.93000031
C    20.22999954   5.56999969  53.18999863
C    21.12999916   6.17999983  52.27000427
C    22.49000168   6.25000000  52.45999908
C    23.01000214   5.77000046  53.68999863
C    22.18000031   5.14999962  54.59000015
C    20.78000069   5.00999975  54.40000153
C    16.59000015   4.74000025  53.62999725
C    16.03000069   4.05000019  54.72999954
C    14.70000076   3.63999987  54.78000259
C    24.47000122   5.98000002  54.02999878
H    25.01015854   5.35455275  54.74073410
H    20.22999954   4.00000000  56.24000168
H    18.44000053   6.11000013  52.02000046
H    20.76999855   6.63999987  51.35000229
H    23.18000031   6.67000008  51.73999786
H    22.60000038   4.65000010  55.45999908
H    14.29999924   3.15000010  55.65999985
H    24.53000069   7.02000046  54.38999939
H    24.96999931   5.92000008  53.04999924
