96

S    17.15999985   9.00000000  59.34000015
C    19.85999870   9.19000053  58.61999893
C    18.57999992   8.78000069  58.29999924
C    18.25000000   8.45000076  56.95000076
C    19.27000046   8.46000004  56.02000427
C    20.63999939   8.53999996  56.35000229
C    21.77999878   8.39999962  55.52000046
C    23.01000214   8.85999966  55.91999817
C    23.25000000   9.28999996  57.25999832
C    22.20999908   9.32999992  58.15999985
C    20.89999962   9.01000023  57.69000244
C    16.82999992   8.14000034  56.81000137
C    16.13000107   8.64000034  57.94000244
C    14.75000000   8.80000019  57.94000244
C    24.64999962   9.59999943  57.70999908
H    25.14491272   8.87884140  58.36045456
H    20.05000114   9.72999954  59.54000092
H    19.06999969   8.15999985  54.99000168
H    21.67000008   7.96999979  54.52999878
H    23.84000015   8.69999981  55.24000168
H    22.37999916   9.73999977  59.15000153
H    14.25000000   9.15000057  58.83999634
H    25.27000046   9.86999989  56.84999847
H    24.53000069  10.51000023  58.30999756
S    13.60000038   7.23999977  54.45000076
C    10.90000057   7.16000032  55.20999908
C    12.18999958   7.55000019  55.47999954
C    12.56000042   8.17000008  56.72000122
C    11.56999969   8.40999985  57.64999771
C    10.21999931   8.01999950  57.45999908
C     9.22999954   7.95000029  58.47000122
C     7.95000029   7.50999975  58.22000122
C     7.59000015   7.09000015  56.91999817
C     8.56000042   7.02000046  55.94999695
C     9.90999985   7.42999983  56.18000031
C    14.01000023   8.30999947  56.86000061
C    14.68999958   7.76999998  55.73999786
C    16.06999969   7.63000011  55.73999786
C     6.19999981   6.61999989  56.56000137
H     5.65388203   7.37889099  55.99969864
H    10.65000057   6.83000040  54.20000076
H    11.82000065   8.69000053  58.67000198
H     9.46000004   8.34999943  59.45999908
H     7.13000011   7.44000006  58.94000244
H     8.47000027   6.52999973  54.98000336
H    16.54999924   7.17000008  54.87999725
H     5.66999960   6.39999962  57.49000168
H     6.17999983   5.69000006  55.98999786
S    17.52000046   9.15000057  53.23999786
C    20.13000107   9.68999958  52.55000305
C    18.89999962   9.22000027  52.12999725
C    18.57999992   8.64999962  50.86000061
C    19.63000107   8.57999992  49.95999908
C    20.92000008   9.03999996  50.28999710
C    22.06000137   8.88000011  49.45999908
C    23.36000061   9.06000042  49.88999939
C    23.61999893   9.70000076  51.12999725
C    22.52000046   9.92000008  51.93000031
C    21.18999863   9.52999973  51.62000275
C    17.15999985   8.34999943  50.68999863
C    16.47999954   8.64000034  51.90000153
C    15.10000038   8.75000000  51.95999908
C    25.02000046   9.94999981  51.63000107
H    25.41990471   9.17161655  52.27984238
H    20.31999969  10.19999981  53.48999786
H    19.52000046   8.07999992  49.00000000
H    21.93000031   8.38999939  48.50000000
H    24.17000008   8.60999966  49.31999969
H    22.57999802  10.50000000  52.84999847
H    14.60999966   9.25000000  52.78999710
H    25.82999992  10.06000042  50.89000320
H    24.92000198  10.90999985  52.15999985
S    13.90999985   7.82000017  48.29999924
C    11.23999977   7.81000042  48.89999771
C    12.51000023   8.09000015  49.34999847
C    12.89000034   8.30000019  50.72000122
C    11.87000084   8.36999989  51.65000153
C    10.52000046   8.26000023  51.24000168
C     9.43000031   8.42000008  52.14000320
C     8.11999989   8.23000050  51.75000000
C     7.85000038   7.86999989  50.40999985
C     8.85000038   7.83999968  49.47000122
C    10.21999931   7.95000029  49.86999893
C    14.32999992   8.36000061  50.86000061
C    15.01999950   8.01000023  49.66999817
C    16.40999985   8.02999973  49.55999756
C     6.47000027   7.37999964  50.02999878
H     6.00969219   7.93945122  49.21561050
H    11.10000038   7.40000010  47.90000153
H    12.00000000   8.69999981  52.68000031
H     9.50000000   8.60999966  53.20999908
H     7.35000038   8.32999992  52.50000000
H     8.67999935   7.60999966  48.41999817
H    16.92000008   7.88999987  48.61000061
H     5.86999989   7.55999994  50.93000031
H     6.52999973   6.30999994  49.79999924
