96

S    16.79000092   8.88000011  59.31999969
C    19.55000114   8.97999954  58.72000122
C    18.26000023   8.67999935  58.34999847
C    17.93000031   8.47000027  56.97000122
C    18.95000076   8.38999939  56.04000092
C    20.29999924   8.56999969  56.40999603
C    21.38999939   8.53999996  55.48999786
C    22.67000008   8.90999985  55.83000183
C    22.95999908   9.26000023  57.16999817
C    21.94000053   9.28999996  58.09999847
C    20.61000061   8.90999985  57.77999878
C    16.48999977   8.30000019  56.79999924
C    15.71000004   8.45000076  57.97000122
C    14.32999992   8.42000008  58.00000000
C    24.30000114   9.88000011  57.50999832
H    24.94483948   9.18555737  58.04854584
H    19.81999969   9.57999992  59.58000183
H    18.68999863   8.23000050  55.00000000
H    21.18000031   8.31999969  54.45000076
H    23.40999985   9.11000061  55.06000137
H    22.11999893   9.77999973  59.05000305
H    13.78000069   8.78000069  58.87000275
H    24.63999939  10.14999962  56.50000000
H    24.09000015  10.73999977  58.13999939
S    13.34000015   7.67000008  54.23999786
C    10.57999992   7.62000036  54.87999725
C    11.89000034   7.82000017  55.25000000
C    12.20000076   8.13000011  56.60999680
C    11.21000099   8.34000015  57.55000305
C     9.86999989   8.19000053  57.12999725
C     8.84000015   8.27000046  58.11000061
C     7.55000019   8.01000023  57.74000168
C     7.17999983   7.50000000  56.46999741
C     8.17000008   7.35000038  55.52999878
C     9.52000046   7.69000006  55.81999969
C    13.63999939   8.11999989  56.81000137
C    14.40999985   7.86999989  55.63999939
C    15.78999996   8.01000023  55.61999893
C     5.73999977   7.13999987  56.18999863
H     5.27724361   7.82345581  55.47806931
H    10.40999985   7.34000015  53.83999634
H    11.39999962   8.56000042  58.60000229
H     9.10000038   8.51000023  59.13999939
H     6.76999998   7.96000004  58.50000000
H     7.99000025   6.96000004  54.52999878
H    16.32999992   8.05999947  54.68000031
H     5.21000004   7.07000017  57.15000153
H     5.84999990   6.11999989  55.79000092
S    17.22999954   9.72999954  53.06000137
C    19.93999863   9.65999985  52.56000137
C    18.68000031   9.32999992  52.11999893
C    18.43000031   8.85999966  50.79000092
C    19.45999908   8.78000069  49.86999893
C    20.79000092   8.85999966  50.35999680
C    21.90000153   8.52999973  49.52000046
C    23.15999985   8.89000034  49.93999863
C    23.38000107   9.38000011  51.25000000
C    22.34000015   9.64999962  52.11000061
C    21.01000023   9.39999962  51.66999817
C    17.00000000   8.64000034  50.59000015
C    16.27000046   9.19999981  51.66999817
C    14.89999962   9.46000004  51.56999969
C    24.70000076  10.03000069  51.59999847
H    25.27333641   9.40711784  52.28658676
H    20.07999802  10.25000000  53.46000290
H    19.34000015   8.50000000  48.82999802
H    21.65999985   8.17000008  48.53000259
H    24.04999924   8.71999931  49.34000015
H    22.56000137  10.32999992  52.93000031
H    14.35999966   9.81000042  52.44999695
H    25.26000023  10.10000038  50.65999985
H    24.69000053  11.07999992  51.90000153
S    13.83999920   7.96000004  48.06999969
C    11.07999992   8.15999985  48.62999725
C    12.38000011   8.38999939  48.99000168
C    12.74000072   8.98999977  50.24000168
C    11.76000023   9.21000004  51.18999863
C    10.44000053   8.78999996  50.93000031
C     9.36999989   8.89000034  51.86999893
C     8.05000019   8.67000008  51.55000305
C     7.69999981   8.18000031  50.26000214
C     8.71000004   8.01000023  49.34000015
C    10.07999992   8.28999996  49.61999893
C    14.18000031   9.06000042  50.44000244
C    14.92000008   8.50000000  49.36999893
C    16.28000069   8.23000050  49.45999908
C     6.28000021   7.85000038  49.88999939
H     5.87462282   8.53274059  49.14324951
H    10.88999939   7.60999966  47.70999908
H    12.17000008   9.51000023  52.15000153
H     9.52999973   9.38000011  52.83000183
H     7.26000023   8.82000065  52.27000427
H     8.47999954   7.51999950  48.40000153
H    16.79000092   7.86999989  48.56999969
H     5.66999960   7.90000010  50.80999756
H     6.25999975   6.81999969  49.52000046
