96

S    17.01000023   8.34999943  59.61000061
C    19.67000008   8.67000008  58.75999832
C    18.38999939   8.26000023  58.48999786
C    18.06999969   7.73000002  57.19999695
C    19.07999992   7.62000036  56.25999832
C    20.43000031   7.94000053  56.52000046
C    21.42999840   7.86999989  55.51000214
C    22.72999954   8.19999981  55.83000183
C    23.06999969   8.56999969  57.15999985
C    22.09000015   8.71999931  58.11000061
C    20.72000122   8.45000076  57.83000183
C    16.61999893   7.57999992  57.11000061
C    15.90999985   7.95000029  58.27999878
C    14.52000046   8.03999996  58.26000214
C    24.51999855   8.89999962  57.41000366
H    24.95352173   8.26748466  58.18465424
H    19.88999939   9.17000008  59.69999695
H    18.79999924   7.30999994  55.25000000
H    21.27000046   7.42000008  54.52999878
H    23.54999924   8.19999981  55.11000061
H    22.34999847   9.02000046  59.12000275
H    13.96000004   8.38000011  59.12000275
H    25.10000038   8.69000053  56.50000000
H    24.56999969   9.98000050  57.58999634
S    13.45000076   6.88000011  54.56999969
C    10.70000076   6.98999977  55.24000168
C    12.02000046   7.17999983  55.58000183
C    12.36999989   7.72000027  56.86000061
C    11.38000011   7.73000002  57.83000183
C    10.01999950   7.50999975  57.51999664
C     8.93999958   7.76000023  58.40999985
C     7.65999985   7.36999989  58.11000061
C     7.34000015   6.98000002  56.77999878
C     8.28999996   6.96000004  55.79999924
C     9.64999962   7.13000011  56.18000031
C    13.81000042   7.77999973  57.08000183
C    14.50000000   7.28999996  55.94999695
C    15.88999939   7.17000008  55.98999786
C     5.97000027   6.35999966  56.59999847
H     5.34287024   7.09402704  56.09402084
H    10.44000053   6.51000023  54.29999924
H    11.59000015   8.03999996  58.85000229
H     9.11000061   8.18000031  59.40000153
H     6.94000006   7.26000023  58.92000198
H     8.01999950   6.71000004  54.77000427
H    16.39000130   6.76999998  55.11000061
H     5.55000019   5.98000002  57.54000092
H     6.12999964   5.42999983  56.04000092
S    17.23999977   8.85000038  53.13000107
C    19.90999985   9.04999924  52.50000000
C    18.63000107   8.85000038  52.02999878
C    18.26000023   8.40999985  50.70999908
C    19.31999969   8.23999977  49.84000397
C    20.65999985   8.34999943  50.28999710
C    21.73999977   8.25000000  49.36999893
C    23.02000046   8.55000019  49.77000427
C    23.34000015   8.86999989  51.11000061
C    22.32999992   9.01000023  52.04000092
C    20.98999977   8.78999996  51.62000275
C    16.82999992   8.21000004  50.54000092
C    16.17000008   8.56000042  51.73999786
C    14.78999996   8.64999962  51.81999969
C    24.71999931   9.31999969  51.52000046
H    25.26060677   8.58022213  52.11040115
H    20.09000015   9.32999992  53.53000259
H    19.12999916   7.99000025  48.80000305
H    21.57999992   7.85000038  48.37999725
H    23.72999954   8.40999985  48.95000076
H    22.52000046   9.53999996  52.97000122
H    14.26000023   8.76999950  52.77000046
H    25.34000015   9.77999973  50.73999786
H    24.63999939  10.21999931  52.14000320
S    13.52000046   7.32999992  48.29000092
C    10.85000038   7.32999992  49.15000153
C    12.17000008   7.62000036  49.40000153
C    12.61000061   8.10999966  50.68000031
C    11.61000061   8.47000027  51.56999969
C    10.25000000   8.15999985  51.38000107
C     9.19000053   8.38999939  52.30999756
C     7.88999987   8.09000015  52.02000046
C     7.51999950   7.64999962  50.72000122
C     8.48999977   7.32999992  49.79999924
C     9.85000038   7.63999987  50.10000229
C    14.04999924   8.30999947  50.68000031
C    14.70000076   7.86000013  49.50000000
C    16.09000015   7.81000042  49.41999817
C     6.06999969   7.39000034  50.40000153
H     5.87834978   7.71651506  49.37786865
H    10.51000023   6.76999998  48.29000092
H    11.84999943   8.89000034  52.54000092
H     9.42000008   8.80999947  53.29000092
H     7.09000015   8.30999947  52.72999573
H     8.26000023   7.03999996  48.77999878
H    16.54999924   7.51999950  48.47999954
H     5.44000053   7.82999992  51.18000031
H     5.92999983   6.30999994  50.52999878
