96

S    16.87000084   8.94999981  59.45000076
C    19.59000015   9.15999985  58.86000061
C    18.31999969   8.85000038  58.43000031
C    18.04999924   8.38000011  57.11000061
C    19.06999969   8.22000027  56.18999863
C    20.39999962   8.47999954  56.59000015
C    21.51000023   8.25000000  55.72999954
C    22.80999947   8.53999996  56.10000229
C    23.03999901   9.18000031  57.34000397
C    21.97000122   9.42000008  58.18000031
C    20.63999939   9.00000000  57.90999985
C    16.63999939   8.11999989  56.90000153
C    15.88999939   8.55000019  58.02000046
C    14.50000000   8.67000008  58.04000092
C    24.44999886   9.50000000  57.77999878
H    24.95303154   8.70648575  58.33262253
H    19.64999962   9.55000019  59.86999893
H    18.92000008   7.64999962  55.27000046
H    21.35999870   7.79999971  54.75000000
H    23.65999985   8.22000027  55.50000000
H    22.15999985   9.85999966  59.15000153
H    13.97999954   8.96000004  58.95000076
H    24.93000031   9.68999958  56.81999969
H    24.64999962  10.40999985  58.36999893
S    13.40000057   7.39000034  54.45000076
C    10.62000084   7.40999985  55.11000061
C    11.94000053   7.68000031  55.40000153
C    12.34000015   8.17000008  56.68000031
C    11.36000061   8.34000015  57.63999939
C     9.98999977   8.06999969  57.43000031
C     8.92000008   8.19000053  58.36999893
C     7.63000011   7.88999987  58.02999878
C     7.27999973   7.44000006  56.72000122
C     8.28999996   7.26999998  55.80999756
C     9.63999939   7.59000015  56.11999893
C    13.78000069   8.30999947  56.90000153
C    14.50000000   7.82999992  55.77999878
C    15.88999939   7.76000023  55.77000046
C     5.88999987   7.00000000  56.35000229
H     5.42784500   7.61146641  55.57500458
H    10.39000034   7.09000015  54.09999847
H    11.63000011   8.43999958  58.68999863
H     9.21000004   8.43999958  59.38999939
H     6.94000006   7.76999998  58.86000061
H     8.05999947   6.91999960  54.79999924
H    16.35000038   7.31999969  54.88999939
H     5.26999998   6.94000006  57.25000000
H     5.88000011   5.95000029  56.04000092
S    14.02999973   5.61999989  51.60999680
C    11.33999920   5.07999992  52.14000320
C    12.65999985   4.88999987  52.48000336
C    13.03999996   4.18000031  53.67000198
C    12.03999996   3.61999989  54.43999863
C    10.67000008   3.88999987  54.19000244
C     9.63000011   3.52999973  55.08999634
C     8.31999969   3.81000018  54.77000427
C     7.97999954   4.40000010  53.53000259
C     8.94999981   4.79999971  52.63999939
C    10.31999969   4.61999989  53.00000000
C    14.47000027   4.28999996  53.92000198
C    15.11000061   5.01999950  52.88999939
C    16.45000076   5.38999987  52.94000244
C     6.57999992   4.90000010  53.23999786
H     6.12427521   4.25913763  52.48520660
H    11.09000015   5.58000040  51.20999908
H    12.30000019   3.08999991  55.35999680
H    10.00000000   3.05000019  55.97999954
H     7.53000021   3.63999987  55.50000000
H     8.71999931   5.42000008  51.77999878
H    16.84000015   6.02999973  52.15999985
H     6.03999996   4.76999998  54.19000244
H     6.70000029   5.92999983  52.90000153
S    17.79000092   3.86000013  56.32999802
C    20.45999908   4.38000011  55.63000107
C    19.11999893   4.50000000  55.34000015
C    18.67000008   5.12000036  54.13000107
C    19.55999947   5.71000004  53.23999786
C    20.95000076   5.50000000  53.44999695
C    21.96000099   5.92000008  52.54000092
C    23.29000092   5.65000010  52.80000305
C    23.74000168   5.07000017  54.02000046
C    22.75000000   4.61999989  54.86000061
C    21.37000084   4.94000006  54.69999695
C    17.21999931   5.03000021  54.05000305
C    16.60000038   4.28000021  55.07999802
C    15.24000072   3.98999977  55.04000092
C    25.19000053   4.69000006  54.20000076
H    25.49027061   4.97597122  55.20804596
H    20.85000038   3.71000004  56.38999939
H    19.22000122   6.30999994  52.39999771
H    21.68000031   6.44000006  51.63000107
H    24.00000000   6.02999973  52.06999969
H    23.03999901   4.00999975  55.72000122
H    14.78000069   3.40999985  55.83000183
H    25.76999855   5.13000011  53.37999725
H    25.22999954   3.60000014  54.06000137
