96

S    16.73999977   8.09000015  59.99000168
C    19.44000053   8.36999989  59.29999924
C    18.18000031   7.94000053  58.95000076
C    17.86000061   7.46000004  57.63999939
C    18.79999924   7.55999994  56.62000275
C    20.10999870   7.97999954  56.93999863
C    21.17000198   7.92999983  55.98999786
C    22.46000099   8.27000046  56.30000305
C    22.78000069   8.64000034  57.63999939
C    21.78999901   8.65999985  58.59000397
C    20.43000031   8.38000011  58.29000092
C    16.43000031   7.35000038  57.44999695
C    15.70000076   7.55999994  58.64999771
C    14.30999947   7.63000011  58.66000366
C    24.15999985   9.06999969  58.09000015
H    24.60778236   8.30948162  58.72969055
H    19.72999954   8.86999989  60.21999741
H    18.68000031   7.17000008  55.61999893
H    21.02000046   7.35000038  55.07999802
H    23.29999924   8.03999996  55.65000153
H    22.03000069   8.84000015  59.64000320
H    13.78000069   7.86000013  59.58000183
H    24.70000076   9.22999954  57.15000153
H    23.98999977   9.96999931  58.68999863
S    13.27000046   7.03999996  54.85000229
C    10.51000023   7.11999989  55.40999985
C    11.80999947   7.22000027  55.84999847
C    12.15999985   7.40999985  57.22000122
C    11.13999939   7.55999994  58.13999939
C     9.78999996   7.42000008  57.74000168
C     8.73999977   7.65999985  58.67000198
C     7.42999983   7.37999964  58.36000061
C     7.13999987   7.00000000  57.02000046
C     8.10000038   6.90000010  56.04999924
C     9.47000027   7.13999987  56.37000275
C    13.60000038   7.44999981  57.47000122
C    14.30999947   7.30999994  56.25000000
C    15.70000076   7.26999998  56.25999832
C     5.69999981   6.67000008  56.70999908
H     5.30838680   7.37490320  55.97661591
H    10.26000023   6.91999960  54.36999893
H    11.42000008   7.76000023  59.16999817
H     9.07999992   8.01000023  59.64000320
H     6.61999989   7.49000025  59.08000183
H     7.81000042   6.53999996  55.06000137
H    16.35000038   7.11999989  55.40000153
H     4.97000027   6.53999996  57.51999664
H     5.73999977   5.65999985  56.27999878
S    17.10000038   8.82999992  53.34999847
C    19.79999924   8.85999966  52.77999878
C    18.53000069   8.67000008  52.30999756
C    18.20000076   8.38000011  50.93999863
C    19.29000092   8.15999985  50.12000275
C    20.62999916   8.36000061  50.54000092
C    21.75000000   8.36999989  49.66999817
C    23.02000046   8.69999981  50.07999802
C    23.25000000   9.07999992  51.42000198
C    22.20999908   9.17000008  52.31999969
C    20.90999985   8.80000019  51.88999939
C    16.76000023   8.31999969  50.72000122
C    16.05999947   8.56000042  51.93000031
C    14.67000008   8.64000034  51.95999908
C    24.63000107   9.48999977  51.88000107
H    24.95774078   9.06251240  52.82759857
H    20.00999832   9.22000027  53.77999878
H    19.10000038   7.88999987  49.09000015
H    21.56999969   8.34000015  48.59000397
H    23.88000107   8.47999954  49.45000076
H    22.39999962   9.47000027  53.34999847
H    14.15999985   8.82000065  52.90000153
H    25.30999947   9.10000038  51.11000061
H    24.77000046  10.57999992  51.84000015
S    13.55999947   7.82000017  48.26000214
C    10.90000057   7.30000019  49.02999878
C    12.13999939   7.81000042  49.31999969
C    12.53000069   8.23000050  50.63000107
C    11.59000015   8.34999943  51.63999939
C    10.24000072   8.05000019  51.32999802
C     9.21000004   8.23000050  52.29999924
C     7.92000008   7.85000038  52.02999878
C     7.62000036   7.22000027  50.79000092
C     8.61999989   6.96000004  49.88999939
C     9.92000008   7.53000021  50.02999878
C    13.96000004   8.46000004  50.77000046
C    14.68000031   8.11999989  49.59999847
C    16.04999924   7.90000010  49.58000183
C     6.17999983   6.88000011  50.45000076
H     5.81049633   7.62611294  49.74652100
H    10.69000053   6.74000025  48.13000107
H    11.85999966   8.56999969  52.67000198
H     9.52000046   8.76000023  53.20000076
H     7.18999958   8.06999969  52.80000305
H     8.38000011   6.39999962  48.99000168
H    16.54000092   7.53999996  48.68000031
H     5.53999996   6.96000004  51.32999802
H     6.06999969   5.86000013  50.06000137
