96

S    17.01000023   8.93999958  59.31000137
C    19.71999931   8.94999981  58.63999939
C    18.44000053   8.56000042  58.31999969
C    18.12000084   8.02999973  57.02999878
C    19.15999985   7.90999985  56.11999893
C    20.48999977   8.13000011  56.56000137
C    21.63000107   8.06999969  55.70999908
C    22.92000008   8.30000019  56.12999725
C    23.22999954   8.80000019  57.42000198
C    22.18000031   8.85000038  58.30999756
C    20.85000038   8.71000004  57.81999969
C    16.69000053   7.82999992  56.88999939
C    15.97000027   8.31999969  58.01000214
C    14.57999992   8.25000000  58.11999893
C    24.64999962   9.15999985  57.77000046
H    24.97071838   8.57557869  58.63237381
H    19.90999985   9.40999985  59.61000061
H    19.01000023   7.75000000  55.05000305
H    21.40000153   7.75000000  54.69999695
H    23.69999886   8.13000011  55.38999939
H    22.49000168   9.07999992  59.33000183
H    14.04999924   8.52999973  59.02000046
H    25.30999947   8.92000008  56.93000031
H    24.75000000  10.22999954  57.98999786
S    13.45999908   7.13999987  54.48999786
C    10.72999954   6.88000011  55.11000061
C    12.00000000   7.26999998  55.47999954
C    12.38000011   7.63000011  56.81000137
C    11.33999920   7.63999987  57.71999741
C    10.00000000   7.40000010  57.35000229
C     8.96000004   7.62000036  58.29000092
C     7.69000006   7.13999987  58.02000046
C     7.39000034   6.58999968  56.75000000
C     8.34999943   6.39999962  55.77999878
C     9.67000008   6.85999966  56.05999756
C    13.81000042   7.78999996  57.04999924
C    14.52000046   7.44000006  55.86999893
C    15.90999985   7.40000010  55.80999756
C     5.95000029   6.19999981  56.49000168
H     5.56738091   6.97940969  55.83104706
H    10.52999973   6.47000027  54.12000275
H    11.50000000   7.88000011  58.76999664
H     9.10000038   8.10999966  59.25000000
H     6.90000010   7.44999981  58.69999695
H     7.92000008   6.09000015  54.84000397
H    16.42000008   7.18999958  54.86999893
H     5.42999983   6.21000004  57.44999695
H     5.88000011   5.14999962  56.18999863
S    16.98999977   9.11000061  53.29999924
C    19.69000053   9.13999939  52.69000244
C    18.42000008   8.78999996  52.29999924
C    18.09000015   8.32999992  50.98999786
C    19.10000038   8.17000008  50.06999969
C    20.43000031   8.52000046  50.40000153
C    21.47999954   8.43999958  49.45000076
C    22.78000069   8.78000069  49.75000000
C    23.00000000   9.46000004  50.97000122
C    22.01999855   9.55999947  51.93000031
C    20.72000122   9.03999996  51.70999908
C    16.63999939   8.27000046  50.83000183
C    15.90000057   8.65999985  51.97000122
C    14.53999996   8.98999977  51.98999786
C    24.40000153   9.98999977  51.20999908
H    24.99671364   9.43590927  51.93458176
H    19.81999969   9.63000011  53.64999771
H    18.81000137   7.82000017  49.08000183
H    21.21999931   8.07999992  48.44999695
H    23.46999931   8.82999992  48.90999603
H    22.23999977  10.00000000  52.90999985
H    14.02999973   9.22999954  52.90999985
H    24.94999886   9.92000008  50.26000214
H    24.44999886  11.07999992  51.31999969
S    13.59000015   7.63000011  48.39000320
C    10.84000015   7.42000008  49.06000137
C    12.10000038   7.88999987  49.33000183
C    12.41000080   8.50000000  50.59000015
C    11.39000034   8.61999989  51.52000046
C    10.07999992   8.17000008  51.25000000
C     8.98999977   8.21000004  52.15999985
C     7.71000004   7.83999968  51.81000137
C     7.44999981   7.42000008  50.47999954
C     8.46000004   7.17000008  49.58000183
C     9.76000023   7.59000015  49.97000122
C    13.83999920   8.60999966  50.84000015
C    14.60999966   8.19999981  49.72999954
C    15.97000027   7.92000008  49.65000153
C     6.02999973   7.03999996  50.12000275
H     5.68193293   7.53013468  49.21076202
H    10.52000046   6.90999985  48.15999985
H    11.51000023   8.86999989  52.56999969
H     9.11000061   8.60000038  53.16999817
H     6.90000010   7.92000008  52.52999878
H     8.32999992   6.54999971  48.69999695
H    16.43000031   7.60999966  48.72000122
H     5.32999992   7.26000023  50.93999863
H     6.02999973   5.95000029  49.95999908
