96

S    16.84999847   8.64000034  59.45999908
C    19.63000107   8.75000000  58.74000168
C    18.30999947   8.48999977  58.46000290
C    18.02999878   8.06999969  57.11999893
C    18.97999954   7.92999983  56.11999893
C    20.32999992   8.17000008  56.44000244
C    21.37000084   8.07999992  55.45999908
C    22.70000076   8.21000004  55.79999924
C    23.05000114   8.55000019  57.12999725
C    22.04000092   8.80999947  58.02999878
C    20.65999985   8.53999996  57.78999710
C    16.59000015   8.01000023  56.91999817
C    15.80000019   8.34000015  58.06000137
C    14.42000008   8.43000031  58.02000046
C    24.47000122   8.93999958  57.47000122
H    24.89067078   8.31969070  58.26142883
H    19.85000038   9.26000023  59.68000031
H    18.79999924   7.77999973  55.06000137
H    21.21000099   7.72000027  54.45000076
H    23.42000008   8.00000000  55.01999664
H    22.27999878   9.36999989  58.93000031
H    13.71999931   8.52000046  58.85000229
H    25.03999901   8.88000011  56.53999710
H    24.47999954   9.98999977  57.80000305
S    13.55000019   7.34000015  54.33000183
C    10.75000000   7.11999989  55.00000000
C    12.06999969   7.39000034  55.30000305
C    12.38999939   7.73999977  56.65000153
C    11.39000034   7.92000008  57.60000229
C    10.03000069   7.65999985  57.29000092
C     9.01000023   7.78999996  58.27000046
C     7.71000004   7.42999983  57.98999786
C     7.44999981   6.88000011  56.70999908
C     8.36000061   6.86999989  55.68000031
C     9.71000004   7.22000027  55.96000290
C    13.78000069   8.11999989  56.81999969
C    14.59000015   7.86000013  55.68000031
C    15.98000050   7.88000011  55.66999817
C     6.10000038   6.28999996  56.36000061
H     5.46833134   6.91457129  55.72833252
H    10.55999947   6.65000010  54.03999710
H    11.59999943   8.13000011  58.63999939
H     9.27999973   8.18000031  59.23999786
H     6.98999977   7.32999992  58.79000092
H     8.09000015   6.56000042  54.66999817
H    16.51000023   7.64999962  54.75999832
H     5.63000011   6.11999989  57.32999802
H     6.19999981   5.28999996  55.91999817
S    13.69999981   5.35000038  51.44000244
C    11.00000000   4.69999981  51.91999817
C    12.32999992   4.56999969  52.25000000
C    12.76000023   3.88999987  53.43999863
C    11.82000065   3.26999998  54.23999786
C    10.44000053   3.40999985  53.95000076
C     9.43000031   2.91000009  54.80999756
C     8.10000038   3.00000000  54.47000122
C     7.69999981   3.81000018  53.36999893
C     8.63000011   4.39000034  52.55000305
C    10.01000023   4.15999985  52.78999710
C    14.17000008   4.09000015  53.70999908
C    14.80999947   4.92999983  52.76000214
C    16.18000031   5.19000006  52.80000305
C     6.21999979   4.00999975  53.11000061
H     5.90091467   3.88945651  52.07474518
H    10.73999977   5.32000017  51.06999969
H    12.23000050   2.99000001  55.20999908
H     9.61999989   2.38999987  55.75000000
H     7.26999998   2.66000009  55.08999634
H     8.23999977   5.09000015  51.81000137
H    16.69999886   5.65000010  51.97000122
H     5.64000034   3.28999996  53.69999695
H     5.97000027   5.01999950  53.43999863
S    17.32999992   3.60000014  56.23000336
C    20.06000137   4.03999996  55.65000153
C    18.72999954   4.30000019  55.40000153
C    18.30000114   4.84000015  54.15000153
C    19.19000053   5.23999977  53.15999985
C    20.55999947   5.13000011  53.46000290
C    21.59000015   5.40999985  52.50999832
C    22.89999962   5.07999992  52.77999878
C    23.35000038   4.56999969  54.02999878
C    22.36999893   4.32999992  54.97000122
C    20.98999977   4.48000002  54.66999817
C    16.87000084   4.69000006  53.90999603
C    16.21000099   3.91999984  54.88999939
C    14.88000011   3.52999973  54.78000259
C    24.79000092   4.15999985  54.19000244
H    25.17352867   4.65006447  55.08489990
H    20.29999924   3.40999985  56.50000000
H    18.86000061   5.44000053  52.14000320
H    21.28999901   5.60999966  51.49000168
H    23.62999916   5.23999977  51.97999954
H    22.62000084   3.81999993  55.90000153
H    14.52000046   2.79000020  55.48999786
H    25.36999893   4.40000010  53.29000092
H    24.89999962   3.07000017  54.16999817
