96

S    17.05999947   8.57999992  59.31000137
C    19.76000023   8.82000065  58.67000198
C    18.50000000   8.45000076  58.27000046
C    18.19000053   8.03999996  56.93999863
C    19.23999977   7.88000011  56.04999924
C    20.58000183   8.07999992  56.45000076
C    21.70000076   7.83999968  55.59999847
C    22.96999931   7.96000004  56.10000229
C    23.25000000   8.47000027  57.39999771
C    22.17000008   8.78000069  58.20000076
C    20.82999992   8.53999996  57.78999710
C    16.75000000   7.85000038  56.77000046
C    16.03000069   8.06999969  57.95999908
C    14.63999939   8.05000019  58.08000183
C    24.69000053   8.71999931  57.78999710
H    24.98977852   8.10616493  58.63937378
H    19.98999977   9.40999985  59.55999756
H    19.01000023   7.34000015  55.13999939
H    21.42999840   7.53999996  54.59000015
H    23.78999901   7.64999962  55.45999908
H    22.21999931   9.11999989  59.22999954
H    14.14999962   8.39999962  58.97999573
H    25.29999924   8.53999996  56.90000153
H    24.65999985   9.76000023  58.15000153
S    13.50000000   7.04999971  54.36999893
C    10.82999992   7.00000000  55.05000305
C    12.11999989   7.26000023  55.45999908
C    12.50000000   7.73999977  56.75000000
C    11.44000053   8.01999950  57.60000229
C    10.07999992   7.88999987  57.23999786
C     9.06999969   8.07999992  58.20999908
C     7.76000023   7.75000000  57.94000244
C     7.44000006   7.32999992  56.62000275
C     8.40999985   7.03999996  55.70000076
C     9.77999973   7.36999989  55.93000031
C    13.94999981   7.68000031  56.91999817
C    14.60999966   7.35000038  55.72000122
C    16.00000000   7.46000004  55.65999985
C     6.02999973   6.89000034  56.26999664
H     5.44274855   7.42712021  55.52518845
H    10.64000034   6.32000017  54.22000122
H    11.67000008   8.18000031  58.64999771
H     9.39999962   8.26000023  59.22999954
H     7.00000000   7.86999989  58.69999695
H     8.19999981   6.57999992  54.73999786
H    16.59000015   7.22000027  54.78000259
H     5.53999996   6.91999960  57.25000000
H     6.11000013   5.82999992  56.00000000
S    17.69000053   9.15000057  53.20000076
C    20.36999893   9.26000023  52.64999771
C    19.11999893   8.90999985  52.18000031
C    18.78999901   8.36000061  50.90000153
C    19.84000015   8.27000046  50.00999832
C    21.14999962   8.67000008  50.38000107
C    22.23999977   8.47999954  49.47999954
C    23.47999954   9.00000000  49.72999954
C    23.69999886   9.57999992  51.00999832
C    22.72999954   9.63999939  51.97999954
C    21.40000153   9.26000023  51.66999817
C    17.35000038   8.36000061  50.70000076
C    16.61999893   8.76999950  51.84000015
C    15.22999954   8.89000034  51.88000107
C    25.12000084   9.81999969  51.47999573
H    25.48179054   9.16735840  52.27452087
H    20.62000084   9.63999939  53.62999725
H    19.64999962   8.00000000  48.96999741
H    22.20000076   8.01000023  48.50000000
H    24.28999901   8.78000069  49.05000305
H    23.00000000  10.01000023  52.97000122
H    14.75000000   8.98999977  52.84000015
H    25.66999817   9.48999977  50.59000015
H    25.32999992  10.86999989  51.72000122
S    14.09000015   7.57999992  48.36999893
C    11.36999989   7.46000004  49.06000137
C    12.65999985   7.82000017  49.38000107
C    13.01000023   8.43000031  50.63000107
C    12.00000000   8.61999989  51.55000305
C    10.65999985   8.21000004  51.31000137
C     9.61000061   8.25000000  52.27000427
C     8.28999996   8.01999950  51.98999786
C     7.99000025   7.62000036  50.65999985
C     8.96000004   7.50000000  49.68999863
C    10.32999992   7.69000006  50.00999832
C    14.45000076   8.60999966  50.75000000
C    15.19999981   8.19000053  49.61999893
C    16.57999992   8.06999969  49.55999756
C     6.57000017   7.17000008  50.40000153
H     5.98591709   7.90366459  49.84440994
H    11.13000011   7.02000046  48.09999847
H    12.27000046   8.93999958  52.55000305
H    10.01999950   8.59000015  53.22000122
H     7.44999981   8.10000038  52.68000031
H     8.78000069   6.98999977  48.75000000
H    16.95000076   7.88000011  48.54999924
H     6.07999992   6.83000040  51.32999802
H     6.71000004   6.30999994  49.73999786
