96

S    16.90000153   8.65999985  59.40999985
C    19.57999992   8.71999931  58.62999725
C    18.26000023   8.53999996  58.29000092
C    17.89999962   8.02999973  57.00000000
C    18.90999985   7.73000002  56.11000061
C    20.26000023   8.02999973  56.39999771
C    21.28999901   7.88000011  55.41999817
C    22.62000084   7.94000053  55.79000092
C    22.95000076   8.43000031  57.08000183
C    22.00000000   8.69999981  58.04000092
C    20.62999916   8.46000004  57.71999741
C    16.44000053   8.00000000  56.88999939
C    15.76000023   8.27000046  58.09999847
C    14.39000034   8.40999985  58.20999908
C    24.37999916   8.85000038  57.35000229
H    24.92611885   8.20458794  58.03796768
H    19.78000069   9.11999989  59.61999893
H    18.77000046   7.36999989  55.08999634
H    20.96999931   7.63000011  54.40999985
H    23.25000000   7.81000042  54.92000198
H    22.32999992   9.06000042  59.00000000
H    13.94000053   8.69999981  59.15999985
H    24.79999924   9.06000042  56.37000275
H    24.18000031   9.84000015  57.77000046
S    13.19000053   7.76000023  54.48999786
C    10.47999954   7.82999992  55.17000198
C    11.78999996   7.96999979  55.56000137
C    12.17000008   8.27999973  56.90999985
C    11.13000011   8.43999958  57.81000137
C     9.77000046   8.18000031  57.50999832
C     8.69999981   8.14999962  58.44999695
C     7.40000010   7.85000038  58.11999893
C     7.13000011   7.44000006  56.79000092
C     8.11999989   7.51999950  55.83000183
C     9.44000053   7.94000053  56.12999725
C    13.61999989   8.32999992  57.04999924
C    14.27999973   7.88000011  55.87999725
C    15.65000057   7.67000008  55.77999878
C     5.73999977   6.94000006  56.46999741
H     5.17681551   7.62437630  55.83552551
H    10.19000053   7.50000000  54.18000031
H    11.38000011   8.64000034  58.85000229
H     8.86999989   8.36999989  59.51000214
H     6.71999979   7.65999985  58.94000244
H     7.94000053   7.21000004  54.79999924
H    16.09000015   7.51999950  54.79999924
H     5.26000023   6.84999990  57.45999908
H     5.88999987   5.98000002  55.97000122
S    13.67000008   5.49000025  51.38000107
C    10.98000050   5.13000011  52.09000015
C    12.30999947   4.98000002  52.41000366
C    12.77999973   4.32999992  53.59000397
C    11.84999943   3.74000025  54.43000031
C    10.47000027   3.88000011  54.15999985
C     9.44999981   3.24000001  54.93000031
C     8.11999989   3.58000016  54.79000092
C     7.71000004   4.48000002  53.77999878
C     8.65999985   5.00000000  52.93000031
C    10.03999901   4.67000008  53.04000092
C    14.19999981   4.53000021  53.80000305
C    14.82999992   5.17000008  52.70000076
C    16.18999863   5.45000029  52.65999603
C     6.24000025   4.71000004  53.47999954
H     5.88340139   4.01819897  52.71688080
H    10.65000057   5.84999990  51.35000229
H    12.18999958   3.17999983  55.30000305
H     9.89000034   2.63000011  55.70999908
H     7.40000010   3.03999996  55.40000153
H     8.42000008   5.65000010  52.09000015
H    16.69000053   5.78000021  51.76000214
H     5.55999994   4.57999992  54.33000183
H     6.21000004   5.73999977  53.11000061
S    17.56999969   3.73000002  56.00999832
C    20.22999954   4.42000008  55.31000137
C    18.88000107   4.44000006  55.05000305
C    18.42000008   5.09000015  53.86000061
C    19.34999847   5.51999998  52.94000244
C    20.73999786   5.32000017  53.13999939
C    21.61999893   5.77000046  52.11000061
C    22.95999908   5.65000010  52.37999725
C    23.47999954   5.09999990  53.57999802
C    22.63000107   4.61999989  54.54999924
C    21.22999954   4.82999992  54.40000153
C    16.97000122   5.03999996  53.75000000
C    16.38000107   4.38000011  54.86000061
C    15.01000023   4.13000011  54.86999893
C    24.99000168   5.00999975  53.64999771
H    25.44626999   5.20961761  54.61957169
H    20.55000114   4.00999975  56.26999664
H    19.07999992   6.06999969  52.04000092
H    21.22999954   6.19000006  51.18999863
H    23.71999931   5.82000017  51.62000275
H    23.02000046   4.13999987  55.45000076
H    14.63000107   3.47000003  55.65000153
H    25.38999939   5.73000002  52.90999985
H    25.13999939   3.98999977  53.27000046
