96

S    17.40999985   9.03999996  59.23999786
C    20.10000038   9.03999996  58.52000427
C    18.82999992   8.60000038  58.26000214
C    18.34000015   7.96999979  57.06999969
C    19.29999924   7.63999987  56.12999725
C    20.63999939   8.00000000  56.38000107
C    21.65999985   7.78999996  55.41999817
C    22.98999977   8.00000000  55.65999985
C    23.43000031   8.61999989  56.86000061
C    22.46000099   9.02999973  57.74000168
C    21.07999992   8.75000000  57.52999878
C    16.88999939   7.88999987  56.90999985
C    16.23999977   8.46000004  58.02999878
C    14.85999966   8.53999996  58.08000183
C    24.89999962   8.94999981  57.04000092
H    25.34817123   8.46625805  57.90789413
H    20.22999954   9.64999962  59.40999985
H    19.09000015   7.00000000  55.27000046
H    21.21999931   7.37999964  54.51000214
H    23.65999985   7.75000000  54.84000397
H    22.73999977   9.61999989  58.61000061
H    14.34000015   8.76999950  59.01000214
H    25.45999908   8.84000015  56.10000229
H    24.89000130  10.03999901  57.18000031
S    13.59000015   6.90000010  54.65000153
C    10.93000031   6.90999985  55.48999786
C    12.23999977   7.25000000  55.73999786
C    12.69999981   7.90000010  56.93000031
C    11.77999973   8.23999977  57.90999985
C    10.39999962   8.07999992  57.63000107
C     9.39000034   8.30999947  58.60000229
C     8.05999947   7.97999954  58.41999817
C     7.63999987   7.44999981  57.16999817
C     8.60000038   7.13000011  56.24000168
C     9.98999977   7.40999985  56.42000198
C    14.14999962   8.02999973  56.98999786
C    14.78000069   7.46999979  55.84000015
C    16.17000008   7.46000004  55.79000092
C     6.21999979   6.97000027  56.93999863
H     5.75618362   7.43381643  56.06945419
H    10.54999924   6.38999987  54.61999893
H    12.20999908   8.55000019  58.85000229
H     9.73999977   8.46000004  59.61999893
H     7.36000013   7.95000029  59.23999786
H     8.38000011   6.58999968  55.33000183
H    16.63999939   7.13999987  54.86999893
H     5.65999985   7.17999983  57.85999680
H     6.32000017   5.89999962  56.70000076
S    14.27000046   4.86000013  51.77999878
C    11.61000061   4.26000023  52.37999725
C    12.94000053   4.11000013  52.68000031
C    13.40999985   3.58000016  53.93000031
C    12.51000023   3.05999994  54.85000229
C    11.13999939   3.26999998  54.59000015
C    10.17000008   2.93000007  55.59000015
C     8.82000065   3.12999988  55.40999985
C     8.39999962   3.81999993  54.23999786
C     9.30999947   4.26999998  53.30999756
C    10.67000008   3.88000011  53.36999893
C    14.84000015   3.75999975  54.08000183
C    15.47999954   4.44000006  53.00000000
C    16.84999847   4.67999983  52.90999985
C     6.94000006   4.19000006  54.12000275
H     6.37199211   3.70719314  53.32479095
H    11.28000069   4.90999985  51.56999969
H    12.84999943   2.77999997  55.84000015
H    10.62000084   2.39999986  56.42000198
H     8.11999989   2.91000009  56.20999908
H     8.92000008   4.84000015  52.48000336
H    17.18000031   5.18000031  52.00000000
H     6.44999981   4.13999987  55.10000229
H     7.03000021   5.26000023  53.90999603
S    18.18000031   3.19000006  56.37000275
C    20.86000061   3.50000000  55.54999924
C    19.52000046   3.68000007  55.31999969
C    19.11000061   4.28999996  54.09000015
C    20.06000137   4.67000008  53.15999985
C    21.45000076   4.59999990  53.40999985
C    22.40999985   5.15999985  52.51999664
C    23.75000000   5.00000000  52.80000305
C    24.13000107   4.48000002  54.06000137
C    23.23999786   3.93000007  54.94999695
C    21.84999847   3.98000002  54.65000153
C    17.65999985   4.25000000  53.96999741
C    17.04000092   3.61000013  55.07999802
C    15.67999935   3.30999994  55.10000229
C    25.59999847   4.32999992  54.38000107
H    25.97874832   5.28759098  54.73730850
H    21.17000198   3.00999999  56.46999741
H    19.71999931   5.00000000  52.18000031
H    22.17000008   5.69999981  51.60999680
H    24.50000000   5.13000011  52.02000046
H    23.57000160   3.42000008  55.84999847
H    15.31999969   2.70000005  55.91999817
H    26.15999985   3.96000004  53.50999832
H    25.82999992   3.54999995  55.12000275
