96

S    16.94000053   8.32999992  59.48999786
C    19.57999992   8.65999985  58.80000305
C    18.32999992   8.25000000  58.39000320
C    18.06999969   7.75000000  57.08000183
C    19.14999962   7.53000021  56.23000336
C    20.45999908   7.72000027  56.72000122
C    21.60000038   7.44000006  55.90000153
C    22.86999893   7.83999968  56.25000000
C    23.08000183   8.56999969  57.43999863
C    22.03000069   8.78000069  58.30999756
C    20.71000099   8.38000011  57.97000122
C    16.63999939   7.55000019  56.93000031
C    15.92000008   7.92999983  58.09000015
C    14.53999996   8.03999996  58.15000153
C    24.44000053   9.07999992  57.84000015
H    24.90224457   8.49686241  58.63648224
H    19.69000053   9.31999969  59.65000153
H    18.97999954   7.26999998  55.19000244
H    21.42999840   7.16000032  54.86000061
H    23.72999954   7.64999962  55.61999893
H    22.10000038   9.30999947  59.26000214
H    14.04000092   8.43999958  59.02999878
H    25.05000114   9.07999992  56.93000031
H    24.31999969  10.10000038  58.23999786
S    13.40999985   7.07000017  54.50000000
C    10.67999935   6.88000011  55.19000244
C    11.96000004   7.27999973  55.50000000
C    12.31999969   7.73999977  56.81000137
C    11.31000042   8.02999973  57.70000076
C     9.98999977   7.63999987  57.38999939
C     8.97999954   7.73999977  58.39000320
C     7.65999985   7.48000050  58.11000061
C     7.40000010   6.72999954  56.93999863
C     8.31999969   6.52999973  55.93000031
C     9.64999962   6.98000002  56.16000366
C    13.76000023   7.72000027  57.02999878
C    14.50000000   7.40999985  55.86000061
C    15.88000107   7.22000027  55.79999924
C     5.98000002   6.37000036  56.56999969
H     5.55969048   6.93278742  55.73650742
H    10.43000031   6.24000025  54.34000015
H    11.52999973   8.38000011  58.70999908
H     9.27999973   8.11999989  59.36999893
H     6.86999989   7.59000015  58.83999634
H     8.06999969   6.12999964  54.95999908
H    16.35000038   6.90000010  54.86999893
H     5.40000010   6.53999996  57.49000168
H     5.88000011   5.31000042  56.29000092
S    14.00000000   5.18000031  51.52000046
C    11.33999920   4.53999996  52.09999847
C    12.67000008   4.42000008  52.43000031
C    13.02999973   3.76999998  53.64999771
C    12.13000107   3.08999991  54.45999908
C    10.77000046   3.17999983  54.09999847
C     9.76000023   2.68000007  54.98000336
C     8.42000008   2.89999986  54.75000000
C     8.06999969   3.56999993  53.55999756
C     9.00000000   4.02999973  52.64999771
C    10.39000034   3.82999992  52.88000107
C    14.46000004   3.96000004  53.88000107
C    15.08999920   4.65000010  52.81000137
C    16.45000076   4.92999983  52.77999878
C     6.63000011   3.98999977  53.34000015
H     6.11040020   3.42769361  52.56415939
H    11.00000000   5.28999996  51.38999939
H    12.41000080   2.71000004  55.43000031
H    10.18000031   2.26999998  55.90000153
H     7.69000006   2.56000018  55.47999954
H     8.60999966   4.69999981  51.88999939
H    16.87000084   5.40000010  51.88999939
H     6.00000000   4.01999998  54.23999786
H     6.60000038   5.03999996  53.00000000
S    17.71000099   3.49000001  56.23000336
C    20.45000076   3.75999975  55.61999893
C    19.12999916   3.84999990  55.22999573
C    18.71000099   4.42999983  53.99000168
C    19.64999962   4.98000002  53.13999939
C    21.02999878   4.88000011  53.43000031
C    22.04999924   5.38000011  52.57999802
C    23.38000107   5.19000006  52.88000107
C    23.71000099   4.51000023  54.09000015
C    22.76000023   4.05999994  54.98000336
C    21.38999939   4.19000006  54.65000153
C    17.26000023   4.53999996  53.85000229
C    16.60000038   3.84999990  54.89999771
C    15.22999954   3.67000008  55.00999832
C    25.17000008   4.19999981  54.31999969
H    25.48308372   4.53442955  55.30905914
H    20.62000084   3.26999998  56.56999969
H    19.42000008   5.51000023  52.22000122
H    21.75000000   6.01000023  51.73999786
H    24.06999969   5.28999996  52.04999924
H    23.02000046   3.61000013  55.93999863
H    14.77000046   3.25999999  55.90000153
H    25.85000038   4.53999996  53.54000092
H    25.13999939   3.09999990  54.38000107
