96

S    16.57999992   8.56000042  59.55999756
C    19.27000046   8.71999931  58.81999969
C    17.98999977   8.36000061  58.50000000
C    17.64000130   7.95000029  57.16999817
C    18.60000038   7.96000004  56.18000031
C    19.93999863   8.32999992  56.45000076
C    20.98999977   8.17000008  55.50000000
C    22.27000046   8.61999989  55.75000000
C    22.50000000   9.30000019  56.97999954
C    21.51000023   9.40999985  57.91999817
C    20.23999977   8.78000069  57.77999878
C    16.21999931   7.64999962  57.06999969
C    15.52000046   8.03999996  58.23999786
C    14.13000011   8.14999962  58.27999878
C    23.84000015   9.89999962  57.30999756
H    24.40299225   9.20873356  57.93712616
H    19.51000023   9.03999996  59.82999802
H    18.38000107   7.71000004  55.14999771
H    20.81000137   7.79999971  54.48999786
H    23.02000046   8.56000042  54.95999908
H    21.73999977   9.86999989  58.88000107
H    13.68999958   8.61999989  59.15000153
H    24.34000015  10.00000000  56.33999634
H    23.71999931  10.93999958  57.63000107
S    13.09999943   7.18999958  54.54999924
C    10.34999943   7.18999958  55.13999939
C    11.64000034   7.44999981  55.54000092
C    11.96000004   7.86000013  56.86999893
C    10.95000076   8.07999992  57.78999710
C     9.63000011   7.73000002  57.43000031
C     8.56000042   7.68000031  58.36999893
C     7.26999998   7.40999985  58.00000000
C     6.97000027   7.04999971  56.65999985
C     7.97999954   7.00000000  55.72000122
C     9.30999947   7.30999994  56.09000397
C    13.38999939   7.78999996  57.15000153
C    14.11999893   7.50000000  55.97000122
C    15.50000000   7.35000038  55.90000153
C     5.52999973   6.80999994  56.25999832
H     5.03856754   7.59344339  55.68310165
H    10.03000069   6.74000025  54.20000076
H    11.23000050   8.23999977  58.82999802
H     8.82999992   8.14000034  59.33000183
H     6.47000027   7.72000027  58.67000198
H     7.75000000   6.69000053  54.71000290
H    16.03000069   7.13999987  54.98000336
H     4.88000011   6.56000042  57.09999847
H     5.52999973   5.98999977  55.52000046
S    13.27999973   5.27999973  51.58000183
C    10.54999924   4.67999983  52.31999969
C    11.90999985   4.73000002  52.56000137
C    12.38999939   4.05999994  53.73000336
C    11.52999973   3.48000002  54.64000320
C    10.13000011   3.45999980  54.47000122
C     9.17000008   2.84999990  55.31999969
C     7.82999992   2.96999979  55.00999832
C     7.32999992   3.60000014  53.85000229
C     8.27000046   4.13000011  52.98999786
C     9.67000008   4.05000019  53.23999786
C    13.83999920   4.13999987  53.87000275
C    14.47999954   4.78999996  52.77999878
C    15.81999969   5.13000011  52.85999680
C     5.84999990   3.55999994  53.53000259
H     5.55738974   3.92397904  52.54511642
H    10.34000015   5.22000027  51.39999771
H    11.90999985   3.02999997  55.56000137
H     9.53999996   2.45000005  56.25999832
H     7.07999992   2.52999997  55.66999817
H     7.94000053   4.65000010  52.09999847
H    16.32999992   5.69000006  52.08000183
H     5.50000000   2.52999997  53.41999817
H     5.28999996   4.17000008  54.26000214
S    17.20999908   3.49000001  56.18000031
C    19.88999939   4.11000013  55.63000107
C    18.56999969   4.13000011  55.24000168
C    18.09999847   4.75000000  54.02999878
C    19.02000046   5.38999987  53.22999954
C    20.40999985   5.36999989  53.53000259
C    21.42000008   5.84000015  52.63999939
C    22.73999977   5.69000006  52.98999786
C    23.15999985   4.99000025  54.15000153
C    22.19000053   4.57999992  55.04000092
C    20.81000137   4.75000000  54.75999832
C    16.65999985   4.59999990  53.85000229
C    16.03999901   3.86999989  54.89999771
C    14.65999985   3.73000002  54.93000031
C    24.63000107   4.69999981  54.38000107
H    25.14345741   5.17780066  55.21436691
H    20.19000053   3.58999991  56.53999710
H    18.73999977   5.75999975  52.25000000
H    21.14999962   6.30000019  51.69000244
H    23.52000046   6.07999992  52.32999802
H    22.39999962   3.82999992  55.79000092
H    14.25000000   3.30000019  55.84000015
H    25.05000114   5.00000000  53.40999985
H    24.72999954   3.61000013  54.47999954
