96

S    16.53000069   9.01000023  59.31999969
C    19.31999969   8.85999966  58.79000092
C    18.01000023   8.71000004  58.39000320
C    17.71000099   8.23999977  57.06999969
C    18.72999954   7.96000004  56.18999863
C    20.07999802   8.25000000  56.51000214
C    21.12999916   8.26000023  55.54000092
C    22.43000031   8.51000023  55.90999985
C    22.72999954   8.80000019  57.27000427
C    21.73000145   8.80999947  58.20999908
C    20.36000061   8.71999931  57.83000183
C    16.27000046   8.17000008  56.86000061
C    15.48999977   8.69999981  57.91999817
C    14.09999943   8.75000000  57.95000076
C    24.13999939   9.26999950  57.55000305
H    24.66732597   8.55739784  58.18421555
H    19.59000015   9.00000000  59.84000397
H    18.50000000   7.79999971  55.13999939
H    20.85000038   8.02999973  54.51000214
H    23.22999954   8.57999992  55.18000031
H    21.94000053   9.03999996  59.25000000
H    13.61999989   9.06999969  58.87000275
H    24.67000008   9.47000027  56.60999680
H    23.97999954  10.19999981  58.11999893
S    13.09000015   7.09999990  54.43000031
C    10.42000008   7.04999971  55.10000229
C    11.68000031   7.46000004  55.45000076
C    11.97999954   8.07999992  56.70000076
C    10.97000027   8.17000008  57.63999939
C     9.64999962   7.83999968  57.27000427
C     8.60000038   7.88000011  58.23999786
C     7.30000019   7.64999962  57.85999680
C     6.98000002   7.27999973  56.52999878
C     7.97999954   7.05999947  55.61000061
C     9.32999992   7.30000019  55.97999954
C    13.42000008   8.30999947  56.81000137
C    14.11999893   7.76000023  55.70999908
C    15.51000023   7.65999985  55.79999924
C     5.64000034   6.69000053  56.11999893
H     5.16338253   7.28043699  55.33749008
H    10.26999950   6.65999985  54.09000015
H    11.16000080   8.56000042  58.63999939
H     8.85000038   8.14999962  59.26000214
H     6.57000017   7.69000006  58.66000366
H     7.86999989   6.57999992  54.64000320
H    15.97000027   7.26000023  54.91000366
H     4.94000006   6.57000017  56.95000076
H     6.01000023   5.72000027  55.77999878
S    13.83999920   5.32999992  51.47999573
C    11.19999981   4.75000000  52.02000046
C    12.51999950   4.55999994  52.37999725
C    12.96000004   3.86999989  53.55999756
C    12.00000000   3.26999998  54.36000061
C    10.64000034   3.45999980  54.02999878
C     9.53999996   3.00000000  54.80999756
C     8.19999981   3.12000012  54.52000046
C     7.83999968   3.84999990  53.36000061
C     8.84000015   4.38000011  52.56000137
C    10.21000004   4.19000006  52.87000275
C    14.34999943   4.18000031  53.83999634
C    14.96000099   4.94000006  52.81000137
C    16.28999901   5.32000017  52.87000275
C     6.43000031   4.38000011  53.18999863
H     6.07269001   4.10844469  52.19667816
H    10.98999977   5.09000015  51.00999832
H    12.28999996   2.57999992  55.13999939
H     9.82999992   2.38999987  55.65999985
H     7.46000004   2.73000002  55.21999741
H     8.53999996   4.90999985  51.65999985
H    16.69000053   5.91000032  52.04999924
H     5.80999947   4.03999996  54.02999878
H     6.53999996   5.46999979  53.15000153
S    17.68000031   3.65000010  56.18999863
C    20.35000038   4.26000023  55.40999985
C    19.00000000   4.25000000  55.17000198
C    18.52000046   4.99000025  54.05000305
C    19.38999939   5.45000029  53.06999969
C    20.78000069   5.44000053  53.27999878
C    21.64999962   5.95000029  52.27000427
C    22.98000145   6.01999998  52.61000061
C    23.51000023   5.49000025  53.81999969
C    22.65000153   4.99000025  54.77000427
C    21.24000168   4.96000004  54.54999924
C    17.06999969   4.99000025  53.99000168
C    16.47999954   4.19000006  55.00000000
C    15.13000011   3.82999992  54.94999695
C    25.00000000   5.47999954  54.06000137
H    25.16308784   5.26727581  55.11652756
H    20.73999786   3.72000003  56.26999664
H    18.96999931   5.84999990  52.15000153
H    21.30000114   6.30999994  51.31000137
H    23.61999893   6.47000027  51.84999847
H    22.98999977   4.56999969  55.70999908
H    14.63999939   3.25000000  55.72000122
H    25.48999977   6.40999985  53.74000168
H    25.35000038   4.65000010  53.43000031
