96

S    17.12000084   8.76999950  59.77000427
C    19.80999947   8.52999973  59.12000275
C    18.51000023   8.23000050  58.80000305
C    18.11000061   7.72000027  57.51999664
C    19.04999924   7.55999994  56.51000214
C    20.38000107   7.99000025  56.79000092
C    21.45999908   7.77999973  55.89000320
C    22.78000069   7.99000025  56.25000000
C    23.13999939   8.64000034  57.44999695
C    22.13000107   8.78999996  58.37999725
C    20.79000092   8.42000008  58.09999847
C    16.65999985   7.68000031  57.38999939
C    15.98999977   8.21000004  58.52000427
C    14.60999966   8.40999985  58.52000427
C    24.54000092   9.11999989  57.75000000
H    25.02210236   8.43229580  58.44479752
H    20.06000137   8.93999958  60.10000229
H    18.90999985   7.09000015  55.54999924
H    21.31000137   7.40000010  54.88999939
H    23.54000092   7.86000013  55.47999954
H    22.32999992   9.28999996  59.31999969
H    14.13000011   8.69000053  59.45000076
H    24.89999962   9.04999924  56.72000122
H    24.56999969  10.14000034  58.15000153
S    13.60000038   6.84999990  54.98000336
C    10.88000107   6.86999989  55.58000183
C    12.15999985   7.16000032  55.97000122
C    12.43999958   7.81000042  57.22000122
C    11.39999962   8.05000019  58.09000015
C    10.07999992   7.69000006  57.76000214
C     8.97999954   7.82999992  58.66000366
C     7.72000027   7.42000008  58.29000092
C     7.53000021   6.74000025  57.04999924
C     8.52999973   6.57999992  56.11999893
C     9.81000042   7.09999990  56.47999573
C    13.88000011   7.99000025  57.41000366
C    14.60000038   7.51999950  56.29000092
C    15.98000050   7.35000038  56.22000122
C     6.14000034   6.23000050  56.73999786
H     5.56358051   6.78507090  55.99990463
H    10.80999947   6.34999990  54.61999893
H    11.68000031   8.23999977  59.13000107
H     9.22000027   8.21000004  59.65000153
H     6.91999960   7.40999985  59.02000046
H     8.32999992   6.15000010  55.13999939
H    16.54000092   6.98999977  55.35999680
H     5.53999996   6.23000050  57.65999603
H     6.17999983   5.14999962  56.52000046
S    17.77000046   8.85000038  53.47999954
C    20.38000107   9.48000050  52.61000061
C    19.11000061   9.02999973  52.32999802
C    18.77000046   8.51000023  51.04000092
C    19.71999931   8.38999939  50.02999878
C    21.04000092   8.78999996  50.31000137
C    22.10000038   8.42000008  49.43999863
C    23.42000008   8.69000053  49.72999954
C    23.72999954   9.34000015  50.94999695
C    22.73999977   9.61999989  51.86000061
C    21.35999870   9.35000038  51.59999847
C    17.35000038   8.22000027  50.94999695
C    16.67000008   8.31999969  52.18999863
C    15.29000092   8.23000050  52.31999969
C    25.20000076   9.51000023  51.27999878
H    25.55659676   8.81820107  52.04312134
H    20.75000000   9.68999958  53.61000061
H    19.75000000   7.64999962  49.23999786
H    21.84000015   7.96999979  48.47999954
H    24.21999931   8.36999989  49.06000137
H    22.90999985  10.01999950  52.85999680
H    14.67000008   8.26000023  53.20999908
H    25.93000031   9.50000000  50.45999908
H    25.26000023  10.52000046  51.70000076
S    14.07999992   7.88000011  48.57999802
C    11.39000034   7.59000015  49.18000031
C    12.67000008   7.82000017  49.65000153
C    13.07000065   8.05999947  51.00000000
C    12.03999996   8.19000053  51.90999985
C    10.70000076   7.86000013  51.58000183
C     9.61000061   7.92999983  52.50000000
C     8.32999992   7.57999992  52.14000320
C     8.01000023   7.25000000  50.79999924
C     9.03999996   7.34000015  49.88999939
C    10.40999985   7.57000017  50.20000076
C    14.52000046   8.18000031  51.14999771
C    15.21999931   7.96999979  49.93999863
C    16.60000038   7.85000038  49.82999802
C     6.63999987   6.80000019  50.34999847
H     6.27726221   7.38322544  49.50361252
H    11.10999966   7.25000000  48.18999863
H    12.22000027   8.34000015  52.97000122
H     9.75000000   8.06999969  53.55999756
H     7.51999950   7.68000031  52.84999847
H     8.80999947   7.09999990  48.85000229
H    17.07999992   7.67000008  48.87000275
H     5.92000008   6.86999989  51.18000031
H     6.69000053   5.72000027  50.13999939
