96

S    16.55999947   8.39999962  59.58000183
C    19.22999954   8.85999966  58.89999771
C    18.01000023   8.31999969  58.56999969
C    17.69000053   7.88000011  57.23999786
C    18.72999954   7.64999962  56.37000275
C    20.00999832   8.13000011  56.75000000
C    21.07999992   8.01999950  55.83000183
C    22.30999947   8.56999969  56.11000061
C    22.62000084   9.11999989  57.37999725
C    21.56999969   9.42000008  58.22999954
C    20.29000092   8.86999989  57.95999908
C    16.26000023   7.68000031  57.02999878
C    15.52999973   7.92999983  58.20999908
C    14.14000034   8.01000023  58.26000214
C    24.04999924   9.44000053  57.76000214
H    24.53278732   8.69451904  58.39188385
H    19.47000122   9.21000004  59.89999771
H    18.56999969   7.35000038  55.33000183
H    21.05999947   7.46999979  54.88999939
H    23.12000084   8.39999962  55.40999985
H    21.70000076   9.78999996  59.23999786
H    13.71999931   8.50000000  59.13999939
H    24.64999962   9.55999947  56.86000061
H    24.14999962  10.36999893  58.33000183
S    13.07999992   7.18999958  54.51000214
C    10.36999893   7.00999975  55.11000061
C    11.63000011   7.37999964  55.52000046
C    11.96000004   7.76000023  56.86000061
C    10.88999939   7.90999985  57.71999741
C     9.55000019   7.78999996  57.25999832
C     8.50000000   7.83999968  58.22000122
C     7.18999958   7.55000019  57.91999817
C     7.00000000   6.88000011  56.68000031
C     8.01999950   6.56000042  55.79999924
C     9.26000023   7.22000027  55.97000122
C    13.40000057   7.73999977  57.09999847
C    14.11999893   7.39000034  55.93999863
C    15.51000023   7.40999985  55.87999725
C     5.61999989   6.39999962  56.30000305
H     5.15000486   7.13347673  55.64485550
H    10.22999954   6.44999981  54.19000244
H    11.00999928   8.02999973  58.79000092
H     8.75000000   8.15999985  59.22000122
H     6.58999968   7.46999979  58.81999969
H     7.76000023   5.86999989  55.00999832
H    15.98000050   7.17000008  54.92000198
H     5.03999996   6.30000019  57.22000122
H     5.69000006   5.36000013  55.94999695
S    13.21000004   5.07999992  51.63999939
C    10.59999943   4.33999968  52.31999969
C    11.94000053   4.32000017  52.62000275
C    12.46000099   3.78999996  53.85000229
C    11.54999924   3.14000010  54.65999985
C    10.15999985   3.35999990  54.52999878
C     9.21000004   2.94999981  55.51000214
C     7.86000013   2.92000008  55.22999573
C     7.42999983   3.37000012  53.95000076
C     8.27000046   3.84999990  52.97000122
C     9.65999985   3.91999984  53.29999924
C    13.89000034   4.02999973  54.01000214
C    14.44000053   4.63999987  52.84999847
C    15.76000023   5.03999996  52.76000214
C     6.00000000   3.12000012  53.54000092
H     5.65110922   3.49737191  52.57876968
H    10.24000072   4.59999990  51.32999802
H    11.82999992   2.50000000  55.48999786
H     9.53999996   2.38999987  56.38000107
H     7.11999989   2.48000002  55.87999725
H     8.03999996   4.25000000  51.98999786
H    16.20000076   5.49000025  51.86999893
H     5.72000027   2.05999994  53.62999725
H     5.47999954   3.52999973  54.41999817
S    17.36999893   3.58000016  56.05999756
C    19.95000076   4.11999989  55.26000214
C    18.60999870   4.15999985  54.94999695
C    18.12999916   4.85000038  53.79000092
C    19.02000046   5.40999985  52.88999939
C    20.40999985   5.38000011  53.15999985
C    21.34000015   5.84999990  52.19999695
C    22.69000053   5.61999989  52.37999725
C    23.19999886   5.00000000  53.54999924
C    22.27000046   4.65999985  54.50000000
C    20.85000038   4.79999971  54.40000153
C    16.68000031   4.69999981  53.75999832
C    16.11999893   4.07000017  54.89999771
C    14.78000069   3.74000025  55.05000305
C    24.70000076   4.94999981  53.75999832
H    25.00542259   5.13467312  54.78990936
H    20.36999893   3.51999998  56.05999756
H    18.78999901   5.65999985  51.86000061
H    21.04000092   6.28000021  51.25000000
H    23.42000008   5.89999962  51.62000275
H    22.65999985   4.32999992  55.45999908
H    14.27999973   3.17999983  55.83000183
H    25.17999840   5.69999981  53.13000107
H    24.93000031   3.88000011  53.61000061
