96

S    16.73999977   8.94999981  59.41999817
C    19.45999908   9.11999989  58.69999695
C    18.18000031   8.73000050  58.40999985
C    17.84000015   8.23000050  57.11000061
C    18.82999992   8.18000031  56.14999771
C    20.17999840   8.52000046  56.40999603
C    21.31999969   8.25000000  55.61000061
C    22.59000015   8.59000015  56.00999832
C    22.88999939   9.19999981  57.25999832
C    21.81999969   9.32999992  58.11999893
C    20.50000000   8.96000004  57.74000168
C    16.40999985   7.92000008  57.04000092
C    15.65000057   8.36000061  58.15000153
C    14.27000046   8.52000046  58.15999985
C    24.30999947   9.55000019  57.63000107
H    24.85037804   8.76787472  58.16326523
H    19.73999977   9.68999958  59.58000183
H    18.68999863   7.73000002  55.17000198
H    21.15999985   7.67000008  54.69999695
H    23.45000076   8.42000008  55.37000275
H    22.04000092   9.67000008  59.13000107
H    13.82999992   8.96000004  59.05000305
H    24.86000061   9.81000042  56.72000122
H    24.27999878  10.42000008  58.29999924
S    13.26000023   7.42000008  54.47000122
C    10.47000027   7.65999985  55.01999664
C    11.78999996   7.73000002  55.40999985
C    12.13999939   8.11999989  56.73999786
C    11.11999989   8.34999943  57.64999771
C     9.77000046   8.13000011  57.29999924
C     8.76000023   8.25000000  58.29999924
C     7.44999981   7.94000053  58.01000214
C     7.11999989   7.49000025  56.70000076
C     8.06999969   7.32999992  55.72999954
C     9.43000031   7.68000031  55.97999954
C    13.56999969   8.17000008  57.00000000
C    14.30999947   7.79999971  55.84999847
C    15.69000053   7.60999966  55.87999725
C     5.72000027   7.07999992  56.26999664
H     5.24980354   7.74254990  55.54333115
H    10.25000000   7.42999983  53.97999573
H    11.26000023   8.56000042  58.70999908
H     9.06999969   8.57999992  59.27999878
H     6.75000000   8.10999966  58.81999969
H     7.77999973   7.03000021  54.72000122
H    16.23999977   7.44000006  54.95999908
H     5.05999994   6.85999966  57.11999893
H     5.89999962   6.15000010  55.72000122
S    13.94999981   5.26000023  51.40999603
C    11.31999969   4.76000023  52.11999893
C    12.64999962   4.59999990  52.42000198
C    13.03999996   4.13000011  53.72000122
C    12.06999969   3.68000007  54.59000015
C    10.69000053   3.82999992  54.33000183
C     9.56999969   3.30000019  55.02999878
C     8.23999977   3.54999995  54.75999832
C     7.96000004   4.34999990  53.61999893
C     8.98999977   4.86000013  52.85999680
C    10.36000061   4.59999990  53.15999985
C    14.47999954   4.26999998  53.86000061
C    15.06999969   4.92999983  52.75000000
C    16.39999962   5.32000017  52.81000137
C     6.52999973   4.73000002  53.29999924
H     6.13152218   4.18209314  52.44611740
H    10.93000031   5.29999971  51.25999832
H    12.35999966   3.09999990  55.47000122
H     9.77000046   2.68000007  55.90000153
H     7.48000050   2.98000002  55.28999710
H     8.75000000   5.27999973  51.88999939
H    16.90000153   5.78999996  51.97000122
H     5.92000008   4.42000008  54.15999985
H     6.38999987   5.79999971  53.16999817
S    17.73999977   3.93000007  56.29000092
C    20.40999985   4.46999979  55.65000153
C    19.07999992   4.59999990  55.34000015
C    18.60000038   5.13999987  54.09999847
C    19.56999969   5.59000015  53.22000122
C    20.95000076   5.46999979  53.48999786
C    21.88999939   5.98000002  52.55000305
C    23.23999786   6.01999998  52.80000305
C    23.71000099   5.40999985  54.00000000
C    22.80999947   4.88000011  54.88999939
C    21.40000153   4.85000038  54.71000290
C    17.15999985   5.00000000  53.95000076
C    16.53000069   4.40000010  55.06999969
C    15.22999954   3.93000007  54.99000168
C    25.13000107   5.73999977  54.40000153
H    25.49232864   5.33504391  55.34489822
H    20.72999954   3.97000027  56.56000137
H    19.22000122   5.92999983  52.25000000
H    21.52000046   6.38999987  51.60999680
H    23.95000076   6.56000042  52.18000031
H    23.12999916   4.57999992  55.87999725
H    14.82999992   3.35999990  55.83000183
H    25.22999954   6.83000040  54.31999969
H    25.73999786   5.26999998  53.61999893
