96

S    16.97000122   8.71000004  59.54999924
C    19.69000053   8.82999992  58.75999832
C    18.36000061   8.63000011  58.44999695
C    17.93000031   8.27000046  57.14000320
C    18.89000130   8.05000019  56.17000198
C    20.27000046   8.11999989  56.49000168
C    21.27000046   8.10000038  55.47000122
C    22.57999802   8.32999992  55.83000183
C    23.00000000   8.67999935  57.14000320
C    22.04000092   8.76999950  58.13000107
C    20.68000031   8.47999954  57.81999969
C    16.48999977   8.06999969  57.02000046
C    15.81999969   8.36999989  58.22999954
C    14.44000053   8.55000019  58.29999924
C    24.43000031   9.10000038  57.38999939
H    24.88478279   8.51020241  58.18587112
H    19.96999931   9.19000053  59.75000000
H    18.59000015   7.85000038  55.14999771
H    21.07000160   7.83999968  54.43999863
H    23.29999924   8.19000053  55.02999878
H    22.32000160   9.03999996  59.13999939
H    14.02999973   8.85999966  59.25000000
H    24.89000130   8.97000027  56.39999771
H    24.44999886  10.18000031  57.58999634
S    13.27000046   7.76000023  54.56999969
C    10.60999966   7.46999979  55.34999847
C    11.90000057   7.76999998  55.70000076
C    12.23000050   8.10000038  57.05999756
C    11.23999977   8.13000011  58.02000046
C     9.89999962   7.81000042  57.70999908
C     8.88000011   7.77999973  58.70999908
C     7.59999990   7.51999950  58.27000046
C     7.30000019   7.20000029  56.91999817
C     8.27000046   7.20000029  55.93999863
C     9.59000015   7.55000019  56.32999802
C    13.68000031   8.19999981  57.18999863
C    14.34999943   7.95000029  55.96000290
C    15.72999954   7.81000042  55.87999725
C     5.92000008   6.63999987  56.70000076
H     5.38130522   7.23539972  55.96283722
H    10.47000027   7.17000008  54.31000137
H    11.51000023   8.45000076  59.02000046
H     9.18000031   8.25000000  59.65000153
H     6.77999973   7.37999964  58.95999908
H     8.05000019   6.84000015  54.93999863
H    16.23999977   7.55999994  54.94999695
H     5.45000029   6.65000010  57.69000244
H     6.01000023   5.55999994  56.52000046
S    17.05000114   9.30000019  53.01000214
C    19.75000000   9.04999924  52.49000168
C    18.45999908   8.89999962  52.02000046
C    18.15000153   8.34999943  50.73999786
C    19.20999908   8.07999992  49.88999939
C    20.55000114   8.38999939  50.24000168
C    21.63000107   8.40999985  49.31999969
C    22.88999939   8.84000015  49.66999817
C    23.11000061   9.50000000  50.90999985
C    22.06000137   9.57999992  51.79000092
C    20.79999924   8.94999981  51.53999710
C    16.70999908   8.28999996  50.56000137
C    15.98999977   8.78000069  51.69000244
C    14.60999966   8.86999989  51.76000214
C    24.47999954   9.98000050  51.33999634
H    24.96204948   9.36326027  52.09852219
H    19.97999954   9.53999996  53.43000031
H    18.90999985   8.09000015  48.85000229
H    21.32999802   8.03999996  48.34000015
H    23.68000031   8.85000038  48.93000031
H    22.19000053  10.08999920  52.74000168
H    14.18000031   9.30999947  52.65999603
H    25.13999939   9.98000050  50.47000122
H    24.44000053  11.03000069  51.65000153
S    13.38000107   7.42000008  48.31999969
C    10.65000057   7.51999950  49.06999969
C    11.96000004   7.88000011  49.29000092
C    12.38999939   8.46000004  50.52000046
C    11.49000072   8.57999992  51.56999969
C    10.13000011   8.23000050  51.36000061
C     9.11999989   8.52999973  52.31999969
C     7.79999971   8.27999973  52.02999878
C     7.36999989   7.69000006  50.80999756
C     8.34000015   7.35000038  49.88999939
C     9.70000076   7.68000031  50.11000061
C    13.83999920   8.57999992  50.63000107
C    14.52999973   8.07999992  49.50000000
C    15.92000008   8.05999947  49.43000031
C     5.92000008   7.36999989  50.54000092
H     5.51615858   8.06432438  49.80316544
H    10.31999969   6.97000027  48.18999863
H    11.92000008   8.88000011  52.51999664
H     9.30999947   9.02999973  53.26000214
H     7.13999987   8.45000076  52.87000275
H     8.13000011   6.84000015  48.95000076
H    16.34000015   7.48000050  48.61000061
H     5.40999985   7.44000006  51.51000214
H     5.86999989   6.37000036  50.08999634
