96

S    16.87999916   8.76000023  59.51000214
C    19.54000092   8.78000069  58.95000076
C    18.29000092   8.40999985  58.48999786
C    17.98999977   8.01000023  57.15000153
C    19.04000092   8.00000000  56.25000000
C    20.34000015   8.27000046  56.73999786
C    21.47999954   8.19000053  55.87999725
C    22.76000023   8.39999962  56.32999802
C    23.00000000   8.97000027  57.61000061
C    21.96000099   9.03999996  58.50999832
C    20.63999939   8.73999977  58.06000137
C    16.54999924   7.88000011  57.02000046
C    15.82999992   8.38000011  58.13999939
C    14.45000076   8.52000046  58.20000076
C    24.37999916   9.39000034  58.04000092
H    24.88510513   8.71415520  58.73007584
H    19.45999908   8.98999977  60.00999832
H    18.86000061   7.69000006  55.21999741
H    21.27000046   7.88000011  54.86000061
H    23.59999847   8.09000015  55.72000122
H    22.11999893   9.28999996  59.54999924
H    14.06000042   8.93000031  59.13000107
H    25.10000038   9.73999977  57.29000092
H    24.14999962  10.26999950  58.66000366
S    13.35999966   7.64999962  54.54000092
C    10.67000008   7.32999992  55.12000275
C    11.90000057   7.76000023  55.54999924
C    12.18000031   8.23999977  56.86999893
C    11.14999962   8.25000000  57.78999710
C     9.89000034   7.76000023  57.37999725
C     8.78999996   7.65999985  58.29000092
C     7.48000050   7.42000008  57.94000244
C     7.18999958   6.97000027  56.63000107
C     8.27000046   6.89000034  55.77000046
C     9.59000015   7.35000038  56.04000092
C    13.61999989   8.27000046  57.09999847
C    14.39000034   7.94000053  55.94999695
C    15.73999977   7.60999966  55.90000153
C     5.86000013   6.39999962  56.22000122
H     5.42536974   6.90588093  55.35786438
H    10.59999943   6.72999954  54.22000122
H    11.28000069   8.43999958  58.85000229
H     8.98999977   7.92999983  59.31999969
H     6.69000053   7.53000021  58.68000031
H     8.19000053   6.28999996  54.86999893
H    16.18000031   7.23000002  54.99000168
H     5.19999981   6.57000017  57.09000015
H     5.82000017   5.31000042  56.10000229
S    17.18000031   9.06999969  53.18999863
C    19.88000107   9.15000057  52.68000031
C    18.61999893   8.90999985  52.16999817
C    18.27999878   8.69000053  50.79000092
C    19.29999924   8.51000023  49.86999893
C    20.61000061   8.78000069  50.34999847
C    21.71999931   8.78999996  49.45999908
C    23.01000214   8.98999977  49.89999771
C    23.29000092   9.23999977  51.26999664
C    22.23999977   9.35999966  52.15999985
C    20.92000008   9.04999924  51.72000122
C    16.84999847   8.64999962  50.56999969
C    16.13000107   8.90999985  51.77000046
C    14.73999977   8.93000031  51.81000137
C    24.68000031   9.64999962  51.68000031
H    25.01351547   9.04683685  52.52442932
H    20.17000008   9.68000031  53.57999802
H    19.19000053   8.19999981  48.83999634
H    21.48999977   8.43999958  48.46000290
H    23.90000153   8.85999966  49.29999924
H    22.39999962   9.76000023  53.15000153
H    14.29999924   9.21000004  52.76000214
H    25.39999962   9.38000011  50.89000320
H    24.71999931  10.71000004  51.97000122
S    13.63999939   7.92000008  48.11000061
C    11.02000046   7.46999979  48.88000107
C    12.25000000   7.99000025  49.20999908
C    12.56999969   8.46000004  50.52999878
C    11.56000042   8.56999969  51.45999908
C    10.31999969   7.96999979  51.14999771
C     9.25000000   8.23000050  52.05999756
C     7.96999979   7.82000017  51.75000000
C     7.71000004   7.13000011  50.52999878
C     8.71999931   6.88000011  49.62999725
C    10.03999901   7.32999992  49.88999939
C    14.01000023   8.64000034  50.65000153
C    14.72000027   8.32999992  49.45999908
C    16.10999870   8.30999947  49.43000031
C     6.30999994   6.78999996  50.06999969
H     5.88287735   7.68695736  49.62152100
H    10.80000019   6.85999966  48.00000000
H    11.69999981   8.96000004  52.45999908
H     9.57999992   8.92000008  52.83000183
H     7.13999987   8.17000008  52.35000229
H     8.55000019   6.46000004  48.63999939
H    16.68000031   8.05999947  48.54000092
H     5.73000002   6.37000036  50.90000153
H     6.37000036   5.98000002  49.34000015
