96

S    16.90999985   9.01000023  59.61999893
C    19.63000107   8.97000027  58.97999573
C    18.34000015   8.64000034  58.63999939
C    18.06999969   8.10999966  57.34000397
C    19.13999939   7.88000011  56.49000168
C    20.48000145   8.14999962  56.86000061
C    21.54999924   8.03999996  55.93000031
C    22.77000046   8.59000015  56.25000000
C    23.09000015   9.02999973  57.56000137
C    22.07999992   9.13999939  58.48999786
C    20.76000023   8.73000050  58.15000153
C    16.62999916   8.01999950  57.14000320
C    15.90000057   8.51000023  58.23999786
C    14.51000023   8.53999996  58.25000000
C    24.44000053   9.63999939  57.85999680
H    24.89089775   9.18194485  58.74032593
H    19.79999924   9.55999947  59.87999725
H    18.79999924   7.65999985  55.47999954
H    21.28000069   7.55000019  55.00000000
H    23.54000092   8.52000046  55.48999786
H    22.23999977   9.77999973  59.34999847
H    14.07999992   8.73000050  59.22999954
H    25.12000084   9.75000000  57.00000000
H    24.27000046  10.71000004  58.04999924
S    13.43999958   7.39000034  54.59999847
C    10.72999954   7.17000008  55.31000137
C    12.01000023   7.55000019  55.63000107
C    12.35999966   8.05000019  56.93000031
C    11.32999992   8.26000023  57.83000183
C     9.98000050   8.01999950  57.48000336
C     8.92000008   8.11999989  58.43000031
C     7.69000006   7.55999994  58.18999863
C     7.36000013   7.11000013  56.88999939
C     8.32999992   7.00999975  55.91999817
C     9.67000008   7.37999964  56.23000336
C    13.80000019   8.25000000  57.08000183
C    14.52000046   7.83999968  55.93999863
C    15.90000057   7.69999981  55.98999786
C     5.92000008   6.83000040  56.51000214
H     5.52784348   7.42179918  55.68290710
H    10.43000031   6.81999969  54.33000183
H    11.61999893   8.55000019  58.82999802
H     9.23999977   8.43000031  59.43000031
H     7.03999996   7.59000015  59.06000137
H     8.03999996   6.65999985  54.93000031
H    16.43000031   7.36999989  55.10000229
H     5.26000023   6.90000010  57.37999725
H     5.82999992   5.77000046  56.20999908
S    17.31999969   9.02000046  53.18999863
C    19.98999977   9.15999985  52.51999664
C    18.71999931   8.82999992  52.11999893
C    18.42000008   8.38999939  50.79000092
C    19.44000053   8.40999985  49.86000061
C    20.76000023   8.71000004  50.27999878
C    21.84999847   8.76999950  49.36999893
C    23.13999939   9.01000023  49.78000259
C    23.46999931   9.22000027  51.13999939
C    22.43000031   9.35999966  52.02000046
C    21.09000015   9.06999969  51.63000107
C    16.97000122   8.30999947  50.61000061
C    16.28999901   8.51000023  51.83000183
C    14.91000080   8.64000034  51.88999939
C    24.86999893   9.72999954  51.44000244
H    25.26936531   9.27358341  52.34570312
H    20.12000084   9.51000023  53.54999924
H    19.19999886   8.38000011  48.80000305
H    21.73000145   8.52000046  48.31999969
H    23.88000107   9.15999985  49.00000000
H    22.56000137   9.68000031  53.04999924
H    14.37999916   9.04999924  52.75000000
H    25.50000000   9.43000031  50.59000015
H    24.70999908  10.80999947  51.52000046
S    13.76999950   8.05000019  48.13000107
C    11.00999928   7.96000004  48.83999634
C    12.32999992   8.17000008  49.15999985
C    12.71000004   8.46000004  50.51000214
C    11.77000046   8.63000011  51.51000214
C    10.40999985   8.40999985  51.19999695
C     9.39000034   8.43000031  52.18999863
C     8.13000011   7.92999983  51.90999985
C     7.86000013   7.36999989  50.63999939
C     8.73000050   7.57000017  49.59000015
C    10.01999950   8.10000038  49.85000229
C    14.14999962   8.45000076  50.72999954
C    14.85999966   8.23000050  49.52000046
C    16.25000000   8.23000050  49.40999985
C     6.48000002   6.94000006  50.20999908
H     5.92838669   7.60476494  49.54523468
H    10.75000000   7.48000050  47.90000153
H    12.03999996   8.86999989  52.54000092
H     9.61999989   8.85000038  53.15999985
H     7.44999981   8.21000004  52.70999908
H     8.36000061   7.40000010  48.57999802
H    16.65999985   8.07999992  48.41999817
H     5.88000011   6.54999971  51.04000092
H     6.60000038   6.01999998  49.62999725
