96

S    16.70999908   8.34000015  59.34999847
C    19.43000031   8.43999958  58.68000031
C    18.17000008   7.96999979  58.40000153
C    17.87999916   7.28999996  57.18000031
C    18.88000107   7.07000017  56.25000000
C    20.20999908   7.44000006  56.56000137
C    21.27000046   7.18999958  55.65000153
C    22.55000114   7.62000036  55.91999817
C    22.79000092   8.47000027  57.02999878
C    21.77999878   8.73999977  57.91999817
C    20.46999931   8.21000004  57.75000000
C    16.45000076   7.17999983  56.91999817
C    15.72000027   7.77999973  57.97999954
C    14.34000015   7.94000053  58.02999878
C    24.20000076   8.84000015  57.39999771
H    24.69932175   8.17661572  58.10618591
H    19.55999947   9.11000061  59.52999878
H    18.67000008   6.50000000  55.34999847
H    20.97999954   6.65999985  54.75000000
H    23.46999931   7.39000034  55.38000107
H    22.00000000   9.38000011  58.77999878
H    13.81999969   8.19000053  58.95000076
H    24.77999878   8.98999977  56.47999573
H    24.15999985   9.85000038  57.81999969
S    13.34000015   6.28999996  54.54999924
C    10.62000084   6.12999964  55.24000168
C    11.89000034   6.57000017  55.54000092
C    12.18999958   7.22000027  56.77999878
C    11.17000008   7.49000025  57.65999603
C     9.85000038   7.03999996  57.39999771
C     8.75000000   7.34000015  58.25000000
C     7.44000006   7.07999992  57.91999817
C     7.25000000   6.21999979  56.81000137
C     8.25000000   5.86999989  55.93999863
C     9.56999969   6.38000011  56.14999771
C    13.61999989   7.48000050  56.91999817
C    14.35999966   7.03000021  55.79999924
C    15.72999954   6.76999998  55.79999924
C     5.80999947   5.84000015  56.52000046
H     5.47552013   6.54454231  55.75852585
H    10.36999893   5.65000010  54.29999924
H    11.36000061   8.13000011  58.52000427
H     8.96000004   7.90999985  59.15000153
H     6.63999987   7.37999964  58.57999802
H     7.97999954   5.36000013  55.01999664
H    16.21000099   6.34000015  54.93000031
H     5.18000031   6.06999969  57.38999939
H     5.78999996   4.77999973  56.25999832
S    13.76999950   4.39000034  51.37000275
C    11.05000019   4.13999987  52.02999878
C    12.35999966   3.86999989  52.31999969
C    12.86000061   3.19000006  53.47999954
C    11.92000008   2.92000008  54.45000076
C    10.52999973   2.96000004  54.19000244
C     9.52000046   2.38000011  55.00999832
C     8.19000053   2.46000004  54.68000031
C     7.77999973   3.17000008  53.50999832
C     8.73999977   3.71000004  52.68000031
C    10.13000011   3.58999991  52.95000076
C    14.30999947   3.25999999  53.62999725
C    14.98000050   3.91999984  52.57999802
C    16.31000137   4.33999968  52.61000061
C     6.30999994   3.45999980  53.29000092
H     5.89017487   3.03305912  52.37919617
H    10.73999977   4.84000015  51.25999832
H    12.25999928   2.47000003  55.38000107
H     9.81999969   1.92000008  55.93999863
H     7.42999983   1.98000002  55.28999710
H     8.34000015   4.17000008  51.77999878
H    16.68000031   4.99000025  51.83000183
H     5.69999981   3.16000009  54.15000153
H     6.15999985   4.53999996  53.25000000
S    17.47999954   3.12000012  56.23000336
C    20.22000122   3.53999996  55.61999893
C    18.89000130   3.61000013  55.27999878
C    18.50000000   4.02999973  53.95999908
C    19.47000122   4.48999977  53.08000183
C    20.85000038   4.42000008  53.39000320
C    21.86000061   4.76000023  52.44999695
C    23.19000053   4.56999969  52.71999741
C    23.54000092   4.13999987  54.02999878
C    22.60999870   3.84999990  54.99000168
C    21.21999931   3.89999986  54.68000031
C    17.06999969   4.01999998  53.74000168
C    16.39999962   3.44000006  54.85000229
C    15.08999920   2.96999979  54.75999832
C    24.99000168   4.11000013  54.45000076
H    25.18228340   4.85064602  55.22625351
H    20.61000061   2.98000002  56.46999741
H    19.31999969   4.94999981  52.11000061
H    21.59000015   5.28999996  51.52999878
H    24.06999969   4.84000015  52.12999725
H    22.93000031   3.71000004  56.02000427
H    14.55000019   2.52999997  55.59000015
H    25.62999916   4.28000021  53.56999969
H    25.28000069   3.12000012  54.81999969
