96

S    16.64999962   8.98999977  59.29999924
C    19.40000153   8.94999981  58.66000366
C    18.09000015   8.80000019  58.27999878
C    17.78000069   8.23000050  57.00000000
C    18.79999924   7.99000025  56.10000229
C    20.15000153   8.30999947  56.40999603
C    21.24000168   8.09000015  55.52000046
C    22.56000137   8.32999992  55.81999969
C    22.81999969   8.90999985  57.09000015
C    21.78999901   9.17000008  57.95999908
C    20.42000008   8.90999985  57.68000031
C    16.35000038   7.99000025  56.91999817
C    15.55999947   8.47000027  58.00000000
C    14.18000031   8.64000034  57.93000031
C    24.21999931   9.36999989  57.43000031
H    24.63183975   8.73093605  58.21107864
H    19.70000076   9.38000011  59.61999893
H    18.55999947   7.48000050  55.17000198
H    20.93000031   7.73000002  54.54000092
H    23.31000137   8.23000050  55.04000092
H    22.09000015   9.59000015  58.92000198
H    13.55000019   8.98999977  58.74000168
H    24.96999931   9.19000053  56.65000153
H    24.37999916  10.40999985  57.74000168
S    13.25000000   7.27999973  54.31000137
C    10.54999924   7.32999992  54.97000122
C    11.82000065   7.78999996  55.22999573
C    12.13999939   8.30000019  56.52999878
C    11.10999966   8.63000011  57.37999725
C     9.75000000   8.38999939  57.05999756
C     8.69999981   8.71999931  57.95999908
C     7.40999985   8.28999996  57.75000000
C     7.17999983   7.62000036  56.52000046
C     8.14000034   7.30999994  55.58000183
C     9.48000050   7.68000031  55.84000015
C    13.59000015   8.31999969  56.70000076
C    14.34000015   7.76999998  55.63000107
C    15.71000004   7.57999992  55.75000000
C     5.77000046   7.09999990  56.38999939
H     5.20127916   7.65450335  55.64355469
H    10.36999893   6.72999954  54.08000183
H    11.35000038   8.90999985  58.40000153
H     8.98999977   9.19000053  58.89999771
H     6.65000010   8.38000011  58.53000259
H     7.77999973   6.74000025  54.72000122
H    16.23999977   7.03000021  54.97000122
H     5.23000002   7.17999983  57.34000397
H     5.75000000   6.02999973  56.12999725
S    13.96000004   5.09999990  51.35000229
C    11.26999950   4.72000027  51.95000076
C    12.58999920   4.44999981  52.27000427
C    13.02999973   3.84999990  53.48999786
C    12.05999947   3.38999987  54.36000061
C    10.70000076   3.61999989  54.05000305
C     9.64999962   3.23000002  54.93999863
C     8.32999992   3.40000010  54.59999847
C     7.90999985   4.07999992  53.41999817
C     8.89000034   4.51999998  52.56999969
C    10.26999950   4.30999994  52.85999680
C    14.44000053   4.07999992  53.80000305
C    15.03000069   4.81999969  52.74000168
C    16.35000038   5.25000000  52.81999969
C     6.46000004   4.42000008  53.18000031
H     5.98386860   3.75199461  52.46224976
H    11.07999992   5.23000002  51.00999832
H    12.38000011   2.69000006  55.12000275
H     9.96000004   2.86000013  55.90999985
H     7.51999950   3.12000012  55.27000046
H     8.67000008   5.03999996  51.63999939
H    16.81999969   5.60999966  51.90999985
H     5.92999983   4.50000000  54.13999939
H     6.38999987   5.42999983  52.76000214
S    17.73999977   3.79999995  56.24000168
C    20.39999962   4.38000011  55.56000137
C    19.05999947   4.46000004  55.25000000
C    18.57999992   5.03999996  54.02999878
C    19.52000046   5.46999979  53.11999893
C    20.89999962   5.36999989  53.40000153
C    21.78999901   5.77000046  52.36000061
C    23.13999939   5.64000034  52.57999802
C    23.64999962   5.03999996  53.75999832
C    22.79000092   4.69000006  54.78000259
C    21.38000107   4.86000013  54.65000153
C    17.13000107   4.96000004  53.94000244
C    16.53000069   4.26999998  55.02999878
C    15.19999981   3.88999987  54.95999908
C    25.12000084   4.92999983  54.09999847
H    25.36197281   5.00116873  55.16041565
H    20.72000122   3.91999984  56.49000168
H    19.22999954   5.69000006  52.09000015
H    21.45000076   6.15999985  51.39999771
H    23.84000015   6.01000023  51.84000015
H    23.15000153   4.32999992  55.73999786
H    14.61999989   3.40000010  55.73999786
H    25.76000023   5.55999994  53.47000122
H    25.58000183   4.00000000  53.75000000
