96

S    16.72999954   8.67000008  59.31999969
C    19.40999985   8.73999977  58.61000061
C    18.11000061   8.50000000  58.22999954
C    17.71999931   8.01000023  56.93999863
C    18.72999954   7.81000042  56.02000427
C    20.10000038   8.03999996  56.31000137
C    21.18000031   7.95000029  55.38999939
C    22.44999886   8.30999947  55.77000046
C    22.78000069   8.92000008  57.01000214
C    21.73000145   9.02999973  57.88999939
C    20.40999985   8.59000015  57.61000061
C    16.28000069   7.88999987  56.83000183
C    15.59999943   8.21000004  58.02999878
C    14.22000027   8.17000008  58.18000031
C    24.18999863   9.28999996  57.39999771
H    24.67243767   8.53796291  58.02433014
H    19.68000031   9.15000057  59.58000183
H    18.45999908   7.59999990  54.99000168
H    20.94000053   7.68000031  54.36000061
H    23.22000122   8.30999947  55.00000000
H    21.94000053   9.50000000  58.85000229
H    13.83999920   8.56999969  59.12000275
H    24.79999924   9.34000015  56.49000168
H    24.17000008  10.26000023  57.90000153
S    13.02999973   7.23000002  54.47999954
C    10.31000042   7.16000032  55.21999741
C    11.61999893   7.44999981  55.52999878
C    12.01000023   7.92999983  56.83000183
C    11.05000019   8.21000004  57.77999878
C     9.71000004   7.85000038  57.49000168
C     8.67000008   7.90999985  58.46000290
C     7.36000013   7.59999990  58.22000122
C     7.03000021   7.11000013  56.93000031
C     7.96999979   6.97000027  55.93000031
C     9.30999947   7.35000038  56.19999695
C    13.45000076   7.88999987  57.04000092
C    14.13000011   7.55999994  55.84000015
C    15.51000023   7.50999975  55.72000122
C     5.59000015   6.74000025  56.66999817
H     5.26919222   7.26755095  55.77173615
H    10.03000069   6.77999973  54.25000000
H    11.36999989   8.47999954  58.77999878
H     8.82999992   8.40999985  59.40999985
H     6.71000004   7.69000006  59.08000183
H     7.73000002   6.51999998  54.97000122
H    15.95999908   7.17999983  54.78000259
H     4.99000025   6.91999960  57.57999802
H     5.59999990   5.65999985  56.49000168
S    13.94000053   5.05000019  51.56000137
C    11.26999950   4.61999989  52.25999832
C    12.60000038   4.55000019  52.62000275
C    13.07000065   3.95000005  53.82999802
C    12.06999969   3.38999987  54.61000061
C    10.69000053   3.48000002  54.34999847
C     9.63999939   2.91000009  55.13000107
C     8.30000019   3.05999994  54.89999771
C     7.92000008   3.88999987  53.81000137
C     8.86999989   4.41000032  52.97000122
C    10.26000023   4.15999985  53.15000153
C    14.52000046   4.03999996  53.95999908
C    15.07999992   4.77999973  52.88999939
C    16.42000008   5.14999962  52.88000107
C     6.48000002   4.35999966  53.70999908
H     5.98823118   3.66154552  53.03292847
H    10.90000057   5.07000017  51.35000229
H    12.51000023   2.75999999  55.38999939
H     9.84000015   2.56000018  56.13999939
H     7.55000019   2.91000009  55.66999817
H     8.63000011   5.01999950  52.11000061
H    16.84000015   5.65000010  52.01000214
H     5.98000002   4.53000021  54.66999817
H     6.58999968   5.33999968  53.22999954
S    17.80999947   3.78999996  56.35000229
C    20.48999977   4.07000017  55.52000046
C    19.13999939   4.26000023  55.27999878
C    18.61999893   4.86000013  54.09000015
C    19.51000023   5.35000038  53.15000153
C    20.88999939   5.14999962  53.36999893
C    21.90000153   5.60999966  52.47000122
C    23.26000023   5.59000015  52.69000244
C    23.75000000   5.00000000  53.88999939
C    22.81999969   4.48999977  54.77000427
C    21.40999985   4.57999992  54.58000183
C    17.17000008   4.76999998  54.00000000
C    16.60000038   4.03999996  55.06999969
C    15.31000042   3.51999998  54.99000168
C    25.20999908   4.67999983  54.03999710
H    25.56568527   5.01434326  55.01457596
H    20.71000099   3.65000010  56.50000000
H    19.25000000   5.75999975  52.18000031
H    21.48999977   5.88000011  51.50000000
H    23.95000076   5.86000013  51.90000153
H    23.32999992   3.94000006  55.54999924
H    14.85000038   3.00999999  55.83000183
H    25.85000038   5.13000011  53.26000214
H    25.39999962   3.61999989  53.83999634
