96

S    16.95999908   8.73999977  59.29000092
C    19.68000031   8.94999981  58.56999969
C    18.38000107   8.64999962  58.22999954
C    18.02000046   8.11999989  56.95000076
C    18.98999977   8.01000023  55.97000122
C    20.35000038   8.27000046  56.27999878
C    21.35000038   8.14999962  55.27000046
C    22.67000008   8.36000061  55.59999847
C    23.00000000   8.90999985  56.86999893
C    22.04999924   9.04999924  57.85999680
C    20.69000053   8.71000004  57.60000229
C    16.56999969   8.01999950  56.81999969
C    15.84000015   8.21000004  58.02000046
C    14.46000004   8.10999966  58.11000061
C    24.41999817   9.35999966  57.09999847
H    24.84456635   8.70899677  57.86421967
H    19.84000015   9.38000011  59.54999924
H    18.75000000   7.77999973  54.93999863
H    21.02000046   8.05999947  54.23999786
H    23.42000008   8.11999989  54.86000061
H    22.32000160   9.57999992  58.76999664
H    13.94999981   8.32999992  59.03999710
H    24.99000168   9.47000027  56.17000198
H    24.40999985  10.34999943  57.57999802
S    13.38999939   7.32999992  54.40999985
C    10.65000057   7.26999998  54.95999908
C    11.92999935   7.51999950  55.40999985
C    12.25999928   7.81000042  56.77000046
C    11.16000080   7.94000053  57.61000061
C     9.82999992   7.64999962  57.23999786
C     8.76999950   7.60999966  58.18999863
C     7.50000000   7.23000002  57.84999847
C     7.23000002   6.86999989  56.50000000
C     8.25000000   6.83000040  55.58000183
C     9.57999992   7.26000023  55.87999725
C    13.69999981   7.83999968  56.95999908
C    14.46000004   7.73000002  55.77000046
C    15.84000015   7.82000017  55.63999939
C     5.82999992   6.42000008  56.14999771
H     5.36143255   7.10155296  55.44004822
H    10.39999962   6.81999969  54.00000000
H    11.23999977   8.15999985  58.67000198
H     8.98999977   7.86000013  59.22999954
H     6.71000004   7.11999989  58.59000397
H     8.00000000   6.48999977  54.58000183
H    16.34000015   7.65999985  54.68999863
H     5.26000023   6.35999966  57.08000183
H     5.78000021   5.38999987  55.77000046
S    17.22999954   9.09000015  52.80000305
C    19.93999863   9.19000053  52.12999725
C    18.65999985   8.88000011  51.76000214
C    18.31999969   8.43999958  50.44000244
C    19.34000015   8.14999962  49.55999756
C    20.69999886   8.31999969  49.91000366
C    21.76000214   8.14000034  48.97999573
C    23.02999878   8.53999996  49.34999847
C    23.31000137   9.27999973  50.52000046
C    22.26000023   9.50000000  51.39999771
C    20.95999908   8.97999954  51.17000198
C    16.87999916   8.52999973  50.24000168
C    16.15999985   8.96000004  51.38999939
C    14.78000069   8.85000038  51.51000214
C    24.69000053   9.77999973  50.84999847
H    25.14505386   9.08319855  51.55391312
H    20.20999908   9.73999977  53.02999878
H    19.12999916   7.78999996  48.55999756
H    21.67000008   7.65999985  48.01000214
H    23.85000038   8.38999939  48.64999771
H    22.46000099  10.01000023  52.34000397
H    14.28999996   8.78999996  52.48000336
H    25.26000023   9.94000053  49.92000198
H    24.61000061  10.81999969  51.20999908
S    13.60999966   7.55999994  47.97000122
C    10.93000031   7.49000025  48.61000061
C    12.18999958   7.86000013  49.01000214
C    12.63000011   8.50000000  50.20999908
C    11.64000034   8.69000053  51.16000366
C    10.29999924   8.34999943  50.81999969
C     9.27999973   8.36000061  51.79999924
C     7.99000025   8.01999950  51.46999741
C     7.57999992   7.63999987  50.15999603
C     8.56000042   7.51999950  49.19000244
C     9.90999985   7.77999973  49.55999756
C    14.06999969   8.61999989  50.31999969
C    14.77000046   8.14999962  49.18000031
C    16.14999962   8.06999969  49.13999939
C     6.21999979   7.07000017  49.81999969
H     5.47412395   7.79456520  49.49323654
H    10.73999977   7.22000027  47.56999969
H    11.85999966   9.02999973  52.16999817
H     9.50000000   8.67000008  52.81999969
H     7.26000023   7.90999985  52.27000427
H     8.36000061   6.84999990  48.36000061
H    16.56999969   7.42999983  48.36000061
H     5.86000013   6.38000011  50.58000183
H     6.30000019   6.47000027  48.90999603
