96

S    17.01000023   8.34999943  59.61000061
C    19.67000008   8.67000008  58.75999832
C    18.38999939   8.26000023  58.48999786
C    18.06999969   7.73000002  57.19999695
C    19.07999992   7.62000036  56.25999832
C    20.43000031   7.94000053  56.52000046
C    21.42999840   7.86999989  55.51000214
C    22.72999954   8.19999981  55.83000183
C    23.06999969   8.56999969  57.15999985
C    22.09000015   8.71999931  58.11000061
C    20.72000122   8.45000076  57.83000183
C    16.61999893   7.57999992  57.11000061
C    15.90999985   7.95000029  58.27999878
C    14.52000046   8.03999996  58.26000214
C    24.51999855   8.89999962  57.41000366
H    24.95352173   8.26748466  58.18465424
H    19.88999939   9.17000008  59.69999695
H    18.79999924   7.30999994  55.25000000
H    21.27000046   7.42000008  54.52999878
H    23.54999924   8.19999981  55.11000061
H    22.34999847   9.02000046  59.12000275
H    13.96000004   8.38000011  59.12000275
H    25.10000038   8.69000053  56.50000000
H    24.56999969   9.98000050  57.58999634
S    13.45000076   6.88000011  54.56999969
C    10.70000076   6.98999977  55.24000168
C    12.02000046   7.17999983  55.58000183
C    12.36999989   7.72000027  56.86000061
C    11.38000011   7.73000002  57.83000183
C    10.01999950   7.50999975  57.51999664
C     8.93999958   7.76000023  58.40999985
C     7.65999985   7.36999989  58.11000061
C     7.34000015   6.98000002  56.77999878
C     8.28999996   6.96000004  55.79999924
C     9.64999962   7.13000011  56.18000031
C    13.81000042   7.77999973  57.08000183
C    14.50000000   7.28999996  55.94999695
C    15.88999939   7.17000008  55.98999786
C     5.97000027   6.35999966  56.59999847
H     5.34287024   7.09402704  56.09402084
H    10.44000053   6.51000023  54.29999924
H    11.59000015   8.03999996  58.85000229
H     9.11000061   8.18000031  59.40000153
H     6.94000006   7.26000023  58.92000198
H     8.01999950   6.71000004  54.77000427
H    16.39000130   6.76999998  55.11000061
H     5.55000019   5.98000002  57.54000092
H     6.12999964   5.42999983  56.04000092
S    13.50000000   5.13000011  51.55000305
C    10.80000019   4.48000002  52.14000320
C    12.15000057   4.40000010  52.43000031
C    12.61999989   3.61000013  53.52000427
C    11.71000004   3.08999991  54.41999817
C    10.31999969   3.21000004  54.20999908
C     9.30999947   2.75999999  55.12000275
C     7.96999979   2.94999981  54.89999771
C     7.57999992   3.61999989  53.70999908
C     8.47999954   4.09000015  52.77999878
C     9.85999966   3.94000006  53.06000137
C    14.06000042   3.70000005  53.72000122
C    14.67000008   4.53999996  52.74000168
C    16.00000000   4.92999983  52.85999680
C     6.09000015   3.88000011  53.67000198
H     5.65611029   3.51724005  52.73820496
H    10.53999996   5.12000036  51.31000137
H    12.18000031   2.52999997  55.21999741
H     9.70000076   2.20000005  55.97000122
H     7.18999958   2.61999989  55.59000015
H     8.10000038   4.67000008  51.93000031
H    16.46000099   5.69999981  52.25000000
H     5.49000025   3.42000008  54.45999908
H     5.96000004   4.97000027  53.69999695
S    17.27000046   3.30999994  56.24000168
C    19.95000076   3.86999989  55.68999863
C    18.63999939   3.94000006  55.28999710
C    18.20000076   4.53000021  54.06000137
C    19.17000008   4.97000027  53.18999863
C    20.52999878   4.88999987  53.55999756
C    21.54999924   5.25000000  52.63999939
C    22.88000107   5.07000017  52.95999908
C    23.25000000   4.41000032  54.15999985
C    22.32000160   3.97000027  55.06999969
C    20.96999931   4.34999990  54.81999969
C    16.75000000   4.42000008  53.92000198
C    16.11999893   3.63999987  54.93000031
C    14.78999996   3.26999998  54.82999802
C    24.68000031   3.95000005  54.29000092
H    25.05014992   4.39133167  55.21537399
H    20.22999954   3.23000002  56.52000046
H    18.94000053   5.26999998  52.16999817
H    21.35000038   5.42999983  51.58000183
H    23.71999931   5.15999985  52.27000427
H    22.60999870   3.42999983  55.97000122
H    14.42000008   2.76999998  55.72999954
H    25.29999924   4.13000011  53.39000320
H    24.70999908   2.86999989  54.40999985
