96

S    17.64000130   9.06999969  59.16999817
C    20.31999969   9.06000042  58.44999695
C    19.02000046   8.73999977  58.11000061
C    18.70000076   8.10999966  56.86999893
C    19.68000031   7.90999985  55.91999817
C    21.04000092   8.14999962  56.22000122
C    22.07999992   8.01000023  55.26000214
C    23.38999939   8.27000046  55.61999893
C    23.68999863   8.69999981  56.93000031
C    22.67999840   9.04999924  57.80000305
C    21.32999802   8.75000000  57.50000000
C    17.26000023   7.94000053  56.76000214
C    16.57999992   8.38000011  57.91999817
C    15.19000053   8.30999947  58.01000214
C    25.12000084   8.92000008  57.36000061
H    25.37599182   8.55734730  58.35551453
H    20.58000183   9.43000031  59.43999863
H    19.40000153   7.59000015  54.92000198
H    21.80000114   7.53999996  54.33000183
H    24.06999969   7.94000053  54.84000397
H    22.89999962   9.36999989  58.81999969
H    14.65000057   8.69000053  58.87000275
H    25.81999969   8.42000008  56.68000031
H    25.36000061   9.98000050  57.23999786
S    13.94999981   7.27999973  54.38999939
C    11.26000023   7.17000008  55.18000031
C    12.56000042   7.46999979  55.47999954
C    13.02000046   7.97999954  56.73999786
C    12.06999969   8.47000027  57.62000275
C    10.72000027   8.13000011  57.36999893
C     9.72000027   8.26000023  58.37999725
C     8.38999939   8.00000000  58.13999939
C     7.96000004   7.40999985  56.91999817
C     8.93000031   7.13999987  55.97000122
C    10.26999950   7.57999992  56.11999893
C    14.47000027   7.96000004  56.86999893
C    15.14000034   7.60999966  55.66999817
C    16.53000069   7.55000019  55.63000107
C     6.52999973   6.98000002  56.72000122
H     5.94181252   7.65322590  56.09638214
H    11.06999969   6.58999968  54.27999878
H    12.28999996   8.98999977  58.54999924
H     9.96999931   8.61999989  59.36999893
H     7.68000031   8.36000061  58.87000275
H     8.69000053   6.63000011  55.05000305
H    17.07999992   7.23000002  54.75000000
H     6.05000019   7.13999987  57.69000244
H     6.44999981   5.93999958  56.39999771
S    13.81000042   5.19999981  51.39999771
C    11.14999962   4.65999985  52.02000046
C    12.48000050   4.44000006  52.29000092
C    12.94000053   3.82999992  53.50000000
C    12.02000046   3.37000012  54.41999817
C    10.64000034   3.60000014  54.18000031
C     9.67000008   3.25000000  55.17000198
C     8.32999992   3.45999980  54.97000122
C     7.88000011   3.91999984  53.69999695
C     8.78000069   4.34999990  52.76000214
C    10.19000053   4.23000002  52.97999954
C    14.37999916   3.98999977  53.68999863
C    15.00000000   4.59999990  52.56999969
C    16.36000061   4.88000011  52.58999634
C     6.39999962   4.02999973  53.43999863
H     6.04524231   3.50495911  52.55310440
H    10.90999985   5.17000008  51.10000229
H    12.28000069   2.84000015  55.33000183
H    10.03000069   2.68000007  56.02000427
H     7.55999994   3.25000000  55.70999908
H     8.46000004   4.67999983  51.77999878
H    16.84000015   5.27999973  51.69000244
H     5.82000017   3.71000004  54.31000137
H     6.23000050   5.12000036  53.43999863
S    17.61999893   3.73000002  56.13999939
C    20.31999969   4.25000000  55.51000214
C    18.98999977   4.30999994  55.18000031
C    18.56999969   4.82999992  53.90999603
C    19.47999954   5.33999968  53.00000000
C    20.86000061   5.26000023  53.29999924
C    21.83000183   5.59999990  52.31999969
C    23.18000031   5.59000015  52.61000061
C    23.61000061   5.07000017  53.86000061
C    22.67000008   4.69999981  54.79999924
C    21.27000046   4.72000027  54.56999969
C    17.14999962   4.61000013  53.70999908
C    16.47999954   4.00999975  54.80999756
C    15.14999962   3.61999989  54.79999924
C    25.10000038   4.85000038  53.99000168
H    25.39307213   4.96436882  55.03361511
H    20.73999786   3.84999990  56.44000244
H    19.10000038   5.52999973  51.98999786
H    21.38000107   5.65999985  51.32999802
H    23.88000107   5.78000021  51.81000137
H    22.96999931   4.26999998  55.75000000
H    14.70999908   3.12999988  55.65999985
H    25.65999985   5.49000025  53.30999756
H    25.29000092   3.79999995  53.72000122
