96

S    16.92000008   8.67999935  59.27999878
C    19.63000107   8.40999985  58.73000336
C    18.34000015   8.34000015  58.27000046
C    17.98999977   7.90000010  56.95000076
C    19.02000046   7.63000011  56.06999969
C    20.38000107   7.76000023  56.45000076
C    21.45000076   7.68000031  55.52000046
C    22.77000046   7.94000053  55.81999969
C    23.00000000   8.42000008  57.12999725
C    22.00000000   8.57999992  58.06000137
C    20.65999985   8.14999962  57.80000305
C    16.54000092   7.85000038  56.81000137
C    15.80999947   8.27999973  57.95000076
C    14.44000053   8.50000000  58.02000046
C    24.37999916   8.89999962  57.51999664
H    24.81587219   8.36409283  58.36315536
H    19.88999939   8.82999992  59.69999695
H    18.77000046   7.53000021  55.01999664
H    21.28000069   7.36000013  54.48999786
H    23.54999924   7.94000053  55.06000137
H    22.19000053   9.21000004  58.93000031
H    13.90999985   8.76000023  58.93000031
H    24.97999954   8.78000069  56.60999680
H    24.28999901   9.96999931  57.74000168
S    13.21000004   7.22000027  54.47000122
C    10.57999992   6.96000004  55.22999573
C    11.82999992   7.44999981  55.56000137
C    12.23999977   7.88000011  56.86000061
C    11.21999931   8.07999992  57.77000046
C     9.89000034   7.76999998  57.42000198
C     8.82999992   7.73999977  58.36999893
C     7.53999996   7.36000013  58.06999969
C     7.23999977   6.90999985  56.76000214
C     8.17000008   6.98999977  55.76000214
C     9.52000046   7.27999973  56.11999893
C    13.68000031   8.03999996  56.93000031
C    14.37000084   7.64999962  55.75000000
C    15.75000000   7.48000050  55.70999908
C     5.84999990   6.38999987  56.49000168
H     5.28776550   6.95935059  55.74984360
H    10.40999985   6.48999977  54.27000046
H    11.42000008   8.51000023  58.75000000
H     9.03999996   7.99000025  59.40999985
H     6.71000004   7.51999950  58.75000000
H     8.00000000   6.74000025  54.71000290
H    16.25000000   6.97000027  54.89999771
H     5.31000042   6.24000025  57.43000031
H     6.03999996   5.36999989  56.13999939
S    17.28000069   9.06999969  53.39000320
C    20.00999832   8.97999954  52.71999741
C    18.70000076   8.64999962  52.43000031
C    18.38999939   8.19000053  51.11000061
C    19.34999847   7.95000029  50.13999939
C    20.71000099   8.19999981  50.45000076
C    21.70999908   8.17000008  49.43000031
C    22.98999977   8.56999969  49.72000122
C    23.31999969   8.93999958  51.04999924
C    22.36000061   9.11999989  52.01000214
C    21.02000046   8.71999931  51.75000000
C    16.95000076   8.27999973  50.90999985
C    16.20000076   8.76999950  52.01000214
C    14.81999969   8.89000034  52.00000000
C    24.77000046   9.15999985  51.42000198
H    25.18961143   8.60526085  52.25922394
H    20.13000107   9.59000015  53.61000061
H    19.04000092   7.60999966  49.15999985
H    21.45999908   7.90000010  48.40999985
H    23.68999863   8.55000019  48.88999939
H    22.63999939   9.64999962  52.91999817
H    14.27999973   9.21000004  52.88999939
H    25.35000038   9.02999973  50.50000000
H    24.86999893  10.21999931  51.70000076
S    13.88000011   7.79999971  48.30999756
C    11.13000011   7.85000038  48.94000244
C    12.43000031   8.14000034  49.27999878
C    12.71999931   8.60000038  50.61000061
C    11.73999977   8.65999985  51.56999969
C    10.39000034   8.43999958  51.19999695
C     9.27999973   8.51000023  52.08000183
C     8.02999973   8.00000000  51.84000015
C     7.76999998   7.50000000  50.54000092
C     8.76000023   7.49000025  49.58000183
C    10.06999969   7.96999979  49.87999725
C    14.17000008   8.69000053  50.77999878
C    14.93000031   8.25000000  49.66999817
C    16.31000137   8.03999996  49.68999863
C     6.46000004   6.84000015  50.19000244
H     5.91903543   7.51620531  49.52803421
H    10.97000027   7.13000011  48.13999939
H    11.97000027   8.89999962  52.61000061
H     9.44999981   8.73999977  53.13000107
H     7.30999994   7.88999987  52.64999771
H     8.55000019   6.94999981  48.66000366
H    16.69000053   7.59000015  48.77999878
H     5.88999987   6.63000011  51.10000229
H     6.58999968   5.89999962  49.64000320
