96

S    16.75000000   8.38000011  59.36999893
C    19.47000122   8.19000053  58.90999603
C    18.20000076   7.97999954  58.41999817
C    17.81999969   7.57999992  57.09999847
C    18.88000107   7.48000050  56.20999908
C    20.20000076   7.78999996  56.59000015
C    21.21999931   7.85000038  55.59000015
C    22.50000000   8.30000019  55.81999969
C    22.80999947   8.64999962  57.16999817
C    21.84000015   8.53999996  58.13999939
C    20.52000046   8.05000019  57.97000122
C    16.38000107   7.59000015  56.90000153
C    15.64000034   7.96999979  58.04000092
C    14.27000046   8.18000031  58.08000183
C    24.18999863   9.17000008  57.48000336
H    24.81364632   8.36209393  57.86269379
H    19.65999985   8.82000065  59.77000427
H    18.68000031   7.25000000  55.15999603
H    20.95000076   7.57999992  54.56999969
H    23.22000122   8.28999996  55.01999664
H    22.04999924   8.97999954  59.10999680
H    13.86999989   8.50000000  59.02999878
H    24.71999931   9.59000015  56.62000275
H    24.01000023  10.01999950  58.13999939
S    13.17000008   7.17999983  54.41999817
C    10.46000004   7.09000015  55.13000107
C    11.76000023   7.42999983  55.45000076
C    12.09000015   7.81000042  56.79000092
C    11.10000038   7.86999989  57.75000000
C     9.78999996   7.44999981  57.43999863
C     8.71000004   7.40999985  58.36999893
C     7.42000008   7.11999989  58.01000214
C     7.07999992   6.74000025  56.68000031
C     8.10000038   6.70000029  55.75000000
C     9.40999985   7.11999989  56.09000397
C    13.53999996   7.88999987  56.91999817
C    14.27999973   7.55000019  55.75000000
C    15.65999985   7.44000006  55.70000076
C     5.68000031   6.30999994  56.31000137
H     5.19663906   6.95685101  55.57785034
H    10.21000004   6.58999968  54.20999908
H    11.36999989   8.09000015  58.77999878
H     8.90999985   7.71000004  59.38999939
H     6.60000038   7.23000002  58.72000122
H     8.07999992   6.19000006  54.79000092
H    16.20000076   7.13999987  54.79999924
H     5.00999975   6.32999992  57.16999817
H     5.75999975   5.25000000  56.02000427
S    13.59000015   4.81999969  51.47999573
C    10.86999989   4.32000017  52.27000427
C    12.22000027   4.39000034  52.52999878
C    12.69000053   3.88999987  53.79000092
C    11.79999924   3.35000014  54.68999863
C    10.39999962   3.33999991  54.45000076
C     9.44000053   3.05000019  55.45999908
C     8.10000038   3.21000004  55.20999908
C     7.63999987   3.72000003  53.96999741
C     8.51000023   4.05000019  52.95999908
C     9.89999962   3.86999989  53.20999908
C    14.14000034   4.00999975  53.94000244
C    14.73999977   4.59999990  52.81000137
C    16.03999901   5.09999990  52.81999969
C     6.17000008   3.74000025  53.59000397
H     5.85634899   3.16259742  52.72033310
H    10.53999996   4.76000023  51.33999634
H    12.20000076   3.07999992  55.65999985
H     9.88000011   2.77999997  56.42000198
H     7.48000050   2.86000013  56.03000259
H     8.22000027   4.53000021  52.02999878
H    16.39000130   5.59999990  51.91999817
H     5.68000031   3.30000019  54.47000122
H     5.77000046   4.76000023  53.50999832
S    17.53999901   3.67000008  56.19999695
C    20.15000153   4.17000008  55.44000244
C    18.81000137   4.30999994  55.14999771
C    18.31999969   4.92000008  53.95000076
C    19.23999977   5.36999989  53.02999878
C    20.62000084   5.15999985  53.22000122
C    21.61000061   5.44000053  52.22999954
C    22.93000031   5.25000000  52.56000137
C    23.42000008   4.82999992  53.82999802
C    22.47999954   4.48999977  54.77000427
C    21.09000015   4.63000011  54.47999954
C    16.87000084   4.76999998  53.88999939
C    16.28999901   4.11000013  55.00999832
C    14.96000099   3.72000003  55.04000092
C    24.82999992   5.19999981  54.22999954
H    25.31408310   4.51658916  54.92764664
H    20.56999969   3.56999993  56.24000168
H    19.02000046   5.75999975  52.04000092
H    21.17000198   5.84000015  51.31999969
H    23.57000160   5.55000019  51.73999786
H    22.79000092   4.46000004  55.80999756
H    14.60999966   3.12999988  55.86999893
H    24.89000130   6.25000000  54.54000092
H    25.43000031   5.14999962  53.29999924
