96

S    16.55999947   8.73999977  59.59000015
C    19.32999992   8.67000008  59.02999878
C    18.02000046   8.51000023  58.61000061
C    17.54999924   8.21000004  57.29999924
C    18.57999992   8.07999992  56.38999939
C    19.95000076   8.23000050  56.72999954
C    21.02999878   8.01000023  55.81999969
C    22.34999847   8.13000011  56.18999863
C    22.65999985   8.55000019  57.50000000
C    21.70999908   8.78999996  58.47000122
C    20.36000061   8.56999969  58.06000137
C    16.11999893   8.05000019  57.06999969
C    15.43000031   8.38000011  58.26000214
C    14.04000092   8.52000046  58.27999878
C    24.05999947   9.04999924  57.76000214
H    24.59439468   8.70086288  58.64353180
H    19.56999969   8.85999966  60.06999969
H    18.31999969   7.76000023  55.38000107
H    20.82999992   7.72000027  54.79000092
H    23.09999847   7.96999979  55.41999817
H    21.90999985   9.18000031  59.45999908
H    13.50000000   8.80000019  59.18000031
H    24.60000038   8.78000069  56.84000015
H    23.85999870  10.13000011  57.81000137
S    12.96000004   7.23999977  54.65000153
C    10.22999954   7.44999981  55.27999878
C    11.54000092   7.50000000  55.68000031
C    11.87999916   7.97999954  56.97999954
C    10.84000015   8.28999996  57.84000015
C     9.48999977   7.97999954  57.56999969
C     8.43999958   8.23000050  58.50000000
C     7.16000032   7.92000008  58.09000015
C     6.85999966   7.36000013  56.81999969
C     7.83999968   7.26000023  55.86999893
C     9.17000008   7.60999966  56.22000122
C    13.31999969   8.18000031  57.14000320
C    14.01000023   7.82999992  55.94999695
C    15.39000034   7.73000002  55.91999817
C     5.45000029   6.98000002  56.44000244
H     5.06683016   7.58313751  55.61689377
H    10.06999969   7.02000046  54.29999924
H    11.09000015   8.69999981  58.81999969
H     8.71000004   8.64000034  59.47000122
H     6.26999950   8.03999996  58.68999863
H     7.59000015   7.09000015  54.81999969
H    15.84000015   7.36999989  54.99000168
H     4.82999992   6.96000004  57.34000397
H     5.44000053   5.92000008  56.17000198
S    13.64999962   5.38000011  51.81000137
C    10.93999958   4.86999989  52.41000366
C    12.27000046   4.67000008  52.68000031
C    12.71000004   3.88999987  53.80000305
C    11.76000023   3.25000000  54.56999969
C    10.39000034   3.51999998  54.33000183
C     9.39999962   3.00000000  55.20999908
C     8.05999947   3.24000001  55.04000092
C     7.59999990   4.05999994  53.96999741
C     8.53999996   4.61000013  53.13999939
C     9.92999935   4.28999996  53.20999908
C    14.14999962   4.00999975  54.02000046
C    14.80000019   4.76000023  53.01000214
C    16.10000038   5.23000002  53.15000153
C     6.12999964   4.30999994  53.69999695
H     5.87328720   3.86788344  52.73732758
H    10.59000015   5.60999966  51.69000244
H    12.02999973   2.66999984  55.45000076
H     9.68999958   2.45000005  56.10000229
H     7.30000019   2.80999994  55.68999863
H     8.19000053   5.18000031  52.28000259
H    16.46000099   5.97000027  52.43999863
H     5.56999969   3.94000006  54.56999969
H     5.98999977   5.40000010  53.61999893
S    17.43999863   3.17999983  56.29000092
C    20.12000084   3.72000003  55.72000122
C    18.81000137   3.74000025  55.30000305
C    18.34000015   4.41000032  54.13000107
C    19.29999924   5.07999992  53.37999725
C    20.68000031   5.01999950  53.67000198
C    21.67000008   5.58000040  52.81000137
C    23.00000000   5.38000011  53.11000061
C    23.38999939   4.69999981  54.29999924
C    22.44999886   4.11000013  55.11000061
C    21.07000160   4.34999990  54.87999725
C    16.88999939   4.53999996  54.08000183
C    16.27000046   3.84000015  55.13999939
C    14.88999939   3.67000008  55.14999771
C    24.84999847   4.42999983  54.54999924
H    25.14161301   4.97766209  55.44617462
H    20.43999863   3.25999999  56.65999985
H    18.97999954   5.64000034  52.50999832
H    21.32999802   6.21000004  52.00000000
H    23.71999931   5.82999992  52.43999863
H    22.67999840   3.38999987  55.90000153
H    14.42000008   3.22000003  56.02000427
H    25.50000000   4.73000002  53.72000122
H    24.94999886   3.35999990  54.79000092
