96

S    17.40999985   9.17000008  59.48999786
C    20.06000137   9.39000034  58.73000336
C    18.79999924   8.93999958  58.40999985
C    18.47999954   8.34000015  57.15000153
C    19.48999977   8.10000038  56.23000336
C    20.78000069   8.57999992  56.53999710
C    21.84999847   8.38000011  55.61999893
C    23.12999916   8.86999989  55.77000046
C    23.40999985   9.42000008  57.04999924
C    22.46999931   9.52000046  58.04999924
C    21.11999893   9.15999985  57.81000137
C    17.02999878   8.27999973  56.97999954
C    16.34000015   8.69000053  58.15999985
C    14.96000099   8.73000050  58.27999878
C    24.80999947   9.77999973  57.48000336
H    25.27157593   9.02727413  58.11910629
H    20.25000000   9.77999973  59.72999954
H    19.29000092   7.59000015  55.28999710
H    21.52000046   7.82000017  54.75000000
H    23.88000107   8.88000011  54.99000168
H    22.63000107   9.89000034  59.06000137
H    14.48999977   9.01000023  59.22000122
H    25.43999863   9.98999977  56.59999847
H    24.76000023  10.75000000  58.00000000
S    13.78000069   7.22000027  54.77000427
C    11.10000038   7.13000011  55.51000214
C    12.36999989   7.57000017  55.79999924
C    12.76999950   8.14999962  57.04000092
C    11.73999977   8.40999985  57.93000031
C    10.39000034   8.07999992  57.65999603
C     9.34000015   8.26000023  58.61000061
C     8.02999973   8.00000000  58.26000214
C     7.67000008   7.34000015  57.05999756
C     8.71000004   7.02000046  56.20999908
C    10.05000019   7.42999983  56.43000031
C    14.21000004   8.34000015  57.16999817
C    14.88000011   7.86999989  56.00999832
C    16.26000023   7.95000029  55.86999893
C     6.24000025   7.03000021  56.70000076
H     5.87039471   7.57730055  55.83284760
H    10.78999996   6.57000017  54.62999725
H    11.97000027   8.75000000  58.93000031
H     9.52999973   8.73999977  59.55999756
H     7.28999996   8.31999969  58.99000168
H     8.51000023   6.43000031  55.31000137
H    16.79999924   7.67000008  54.97000122
H     5.61999989   7.16000032  57.60000229
H     6.15999985   5.97000027  56.43000031
S    17.64999962   9.44000053  53.11000061
C    20.26000023   9.68999958  52.36999893
C    19.03000069   9.19000053  52.02000046
C    18.63999939   8.71999931  50.72999954
C    19.62000084   8.71999931  49.75000000
C    20.94000053   9.09000015  50.07999802
C    22.01000023   8.85000038  49.16999817
C    23.29000092   9.21000004  49.54000092
C    23.62999916   9.84000015  50.76000214
C    22.60000038  10.03999901  51.65000153
C    21.27000046   9.61000061  51.38000107
C    17.20000076   8.67999935  50.58000183
C    16.54000092   9.11000061  51.77000046
C    15.15999985   9.11000061  51.90999985
C    25.03000069  10.14999962  51.24000168
H    25.47135162   9.44526196  51.94473648
H    20.45000076  10.19000053  53.31999969
H    19.40000153   8.27999973  48.77999878
H    21.90000153   8.27000046  48.26000214
H    24.04000092   8.85000038  48.83999634
H    22.69000053  10.60999966  52.56999969
H    14.81999969   9.35000038  52.91999817
H    25.72999954  10.29000092  50.40999985
H    24.93000031  11.13000011  51.70999908
S    13.89000034   8.26000023  48.26000214
C    11.16000080   8.13000011  49.06999969
C    12.50000000   8.30000019  49.36000061
C    12.89000034   8.67999935  50.68999863
C    11.96000004   8.86999989  51.69000244
C    10.62999916   8.45000076  51.42000198
C     9.63000011   8.46000004  52.43999863
C     8.30000019   8.23999977  52.18000031
C     7.88999987   7.96000004  50.84999847
C     8.80999947   7.86999989  49.82999802
C    10.17000008   8.22000027  50.07999802
C    14.32999992   8.80000019  50.83000183
C    15.01000023   8.47000027  49.61999893
C    16.39000130   8.39999962  49.47000122
C     6.53999996   7.34000015  50.58000183
H     6.06475639   7.97838640  49.83521652
H    10.92000008   7.78999996  48.06999969
H    12.25999928   9.13000011  52.70000076
H    10.11999989   8.60000038  53.39000320
H     7.59999990   8.45000076  52.97999954
H     8.56999969   7.50000000  48.82999802
H    16.79999924   8.07999992  48.52000427
H     5.98999977   7.23000002  51.52000046
H     6.61999989   6.32000017  50.19000244
