96

S    16.59000015   8.55000019  59.36000061
C    19.29999924   8.56000042  58.87000275
C    18.04999924   8.26000023  58.40000153
C    17.72999954   7.88000011  57.04999924
C    18.75000000   7.76000023  56.13999939
C    20.06999969   8.07999992  56.56999969
C    21.18999863   7.97999954  55.70000076
C    22.44999886   8.36000061  56.10000229
C    22.76000023   8.73999977  57.43000031
C    21.68999863   8.75000000  58.29999924
C    20.34000015   8.48999977  57.91999817
C    16.29999924   7.73999977  56.81999969
C    15.57000065   8.17000008  57.95999908
C    14.18000031   8.27999973  58.00000000
C    24.15999985   9.22000027  57.71999741
H    24.65228271   8.84900284  58.61894989
H    19.43000031   8.89000034  59.89999771
H    18.53999901   7.50999975  55.10000229
H    21.07999992   7.67000008  54.65999985
H    23.26999855   8.46000004  55.38999939
H    21.81999969   9.02999973  59.34000015
H    13.76999950   8.61999989  58.95000076
H    24.82000160   8.85000038  56.91999817
H    24.27999878  10.31000042  57.69000244
S    13.02000046   7.11000013  54.41999817
C    10.29999924   7.27999973  55.08999634
C    11.61000061   7.55999994  55.40000153
C    12.03999996   7.97999954  56.70000076
C    11.10000038   8.11999989  57.70999908
C     9.72999954   7.92000008  57.41000366
C     8.71000004   8.09000015  58.39000320
C     7.39000034   7.82999992  58.15000153
C     7.05999947   7.17999983  56.93000031
C     8.00000000   6.98999977  55.93000031
C     9.35000038   7.40000010  56.11999893
C    13.48999977   7.99000025  56.81999969
C    14.19000053   7.44000006  55.72000122
C    15.55999947   7.21000004  55.75000000
C     5.64000034   6.75000000  56.68000031
H     5.23947763   7.30071783  55.82888794
H    10.06000042   6.76999998  54.15999985
H    11.38000011   8.43000031  58.70999908
H     9.06000042   8.38000011  59.38000107
H     6.65000010   7.85000038  58.94000244
H     7.73999977   6.63000011  54.93999863
H    16.07999992   6.93000031  54.84000397
H     4.94999981   6.80999994  57.54000092
H     5.75000000   5.68000031  56.47999573
S    13.56999969   5.03999996  51.45999908
C    10.86999989   4.51000023  52.09999847
C    12.20000076   4.48999977  52.45999908
C    12.60000038   4.03999996  53.75999832
C    11.69999981   3.48000002  54.65000153
C    10.32999992   3.55999994  54.31999969
C     9.27999973   3.15000010  55.20000076
C     7.94000053   3.30000019  54.91000366
C     7.55000019   3.74000025  53.61999893
C     8.52999973   4.03999996  52.70000076
C     9.90999985   4.07999992  53.04999924
C    14.04999924   4.07999992  53.88000107
C    14.68999958   4.71000004  52.78999710
C    16.04999924   5.00000000  52.87000275
C     6.05000019   3.84000015  53.44999695
H     5.69581175   4.09501553  52.45118713
H    10.57999992   4.81999969  51.10000229
H    11.87999916   3.23000002  55.70000076
H     9.47000027   2.73000002  56.18000031
H     7.13999987   3.14000010  55.61999893
H     8.27999973   4.48999977  51.75000000
H    16.55999947   5.40000010  52.00000000
H     5.65000010   2.84000015  53.64999771
H     5.65000010   4.53999996  54.19000244
S    17.21999931   3.40000010  56.25000000
C    20.00000000   3.82999992  55.68999863
C    18.67000008   3.93000007  55.38000107
C    18.30999947   4.55999994  54.13999939
C    19.23999977   5.13999987  53.29999924
C    20.61000061   5.10999966  53.67000198
C    21.52000046   5.78000021  52.81000137
C    22.82999992   5.71000004  53.22000122
C    23.29000092   4.86999989  54.27000046
C    22.39000130   4.35999966  55.18000031
C    21.01000023   4.38000011  54.85000229
C    16.87000084   4.51999998  53.88999939
C    16.14999962   3.81999993  54.88999939
C    14.78999996   3.54999995  54.93999863
C    24.76000023   4.65999985  54.54000092
H    25.14606094   5.21049452  55.39791107
H    20.30999947   3.30999994  56.59000015
H    18.94000053   5.64000034  52.38999939
H    21.21000099   6.34000015  51.91999817
H    23.59000015   6.03999996  52.52999878
H    22.82999992   3.88999987  56.05999756
H    14.22999954   3.12999988  55.77999878
H    25.29000092   4.97000027  53.62999725
H    24.97999954   3.58000016  54.59999847
