96

S    16.75000000   8.45000076  59.38999939
C    19.45000076   8.63000011  58.69999695
C    18.18000031   8.25000000  58.36000061
C    17.86999893   7.67000008  57.08000183
C    18.89000130   7.40999985  56.19999695
C    20.20000076   7.86999989  56.46999741
C    21.25999832   7.55999994  55.56999969
C    22.53999901   7.96999979  55.84000015
C    22.78000069   8.63000011  57.06999969
C    21.80999947   8.93999958  58.00000000
C    20.48000145   8.51000023  57.72999573
C    16.43000031   7.59999990  56.86000061
C    15.72000027   8.01999950  58.01000214
C    14.35999966   8.27000046  58.09000015
C    24.14999962   9.13999939  57.45999908
H    24.64594650   8.51652431  58.20391846
H    19.63999939   9.18000031  59.61999893
H    18.68000031   7.18999958  55.14999771
H    21.09999847   6.96000004  54.68000031
H    23.31999969   7.73999977  55.12000275
H    22.17000008   9.35999966  58.93000031
H    13.88000011   8.78000069  58.92000198
H    24.82000160   9.31999969  56.60999680
H    23.95000076  10.13000011  57.87000275
S    13.22000027   7.50000000  54.34999847
C    10.51000023   7.55000019  55.06000137
C    11.82000065   7.82000017  55.38000107
C    12.20999908   8.14000034  56.72000122
C    11.23000050   8.45000076  57.64999771
C     9.86999989   8.18000031  57.37999725
C     8.78000069   8.19999981  58.29999924
C     7.53000021   7.73000002  57.97000122
C     7.30999994   7.09000015  56.72000122
C     8.27999973   7.09999990  55.73999786
C     9.52999973   7.69999981  56.06999969
C    13.63999939   7.96000004  56.91999817
C    14.29999924   7.53000021  55.75000000
C    15.67999935   7.36999989  55.68999863
C     5.91000032   6.65000010  56.37000275
H     5.51274776   7.32391071  55.61096573
H    10.39999962   7.11999989  54.06000137
H    11.44999981   8.59000015  58.70999908
H     9.02000046   8.48999977  59.31999969
H     6.71000004   7.73000002  58.68999863
H     8.10000038   6.57999992  54.80999756
H    16.17000008   7.07000017  54.77000427
H     5.32000017   6.61000013  57.29000092
H     5.91000032   5.61999989  55.98999786
S    17.54999924   8.88000011  53.13000107
C    20.20999908   9.06000042  52.41000366
C    18.94000053   8.69999981  52.04000092
C    18.56999969   8.28999996  50.70999908
C    19.57999992   8.28999996  49.75999832
C    20.90999985   8.64000034  50.07999802
C    21.97999954   8.40999985  49.18000031
C    23.26000023   8.69000053  49.61000061
C    23.59999847   9.11999989  50.90999985
C    22.56999969   9.39000034  51.77999878
C    21.22999954   9.04999924  51.42000198
C    17.13000107   8.26000023  50.52000046
C    16.50000000   8.71999931  51.70999908
C    15.13000011   8.93999958  51.72999954
C    25.03999901   9.36999989  51.32999802
H    25.31774330   8.74329853  52.17746735
H    20.45999908   9.25000000  53.44999695
H    19.31999969   7.76000023  48.85000229
H    21.71999931   8.17000008  48.15000153
H    23.94000053   8.32999992  48.83999634
H    22.78000069   9.75000000  52.77999878
H    14.65999985   9.32999992  52.63999939
H    25.72000122   9.15999985  50.48999786
H    25.20000076  10.42000008  51.60999680
S    13.83999920   7.73000002  48.20999908
C    11.16000080   7.67000008  49.05000305
C    12.46000099   8.05000019  49.27000046
C    12.86999893   8.57999992  50.54000092
C    11.87000084   8.88000011  51.45000076
C    10.50000000   8.64000034  51.19999695
C     9.44000053   8.76999950  52.15000153
C     8.14999962   8.45000076  51.81999969
C     7.73999977   8.05999947  50.51000214
C     8.76000023   7.82000017  49.61999893
C    10.13000011   8.03999996  49.94999695
C    14.32000065   8.59000015  50.63999939
C    15.01000023   8.19999981  49.45999908
C    16.36999893   7.90999985  49.40000153
C     6.28999996   7.76999998  50.24000168
H     5.85572290   8.21139622  49.34296417
H    10.90000057   7.09999990  48.15999985
H    12.20999908   9.23999977  52.42000198
H     9.77000046   8.94999981  53.16999817
H     7.37999964   8.60000038  52.56999969
H     8.60999966   7.49000025  48.59000397
H    16.82999992   7.63999987  48.46000290
H     5.69999981   8.15999985  51.07999802
H     6.17999983   6.67999983  50.33000183
