96

S    17.09000015   8.78000069  59.52000046
C    19.77000046   8.88000011  58.86000061
C    18.51000023   8.46000004  58.50999832
C    18.18000031   7.92000008  57.22000122
C    19.18000031   7.82000017  56.26999664
C    20.46999931   8.30000019  56.59999847
C    21.53000069   8.18000031  55.65999985
C    22.84000015   8.43999958  55.98999786
C    23.15000153   8.85000038  57.30999756
C    22.18000031   9.02000046  58.26000214
C    20.81999969   8.78999996  57.90999985
C    16.73999977   7.94000053  57.04999924
C    16.00000000   8.36999989  58.18000031
C    14.61999989   8.47999954  58.13999939
C    24.56999969   9.23999977  57.68000031
H    25.01727867   8.53713417  58.38286591
H    19.96999931   9.31999969  59.82999802
H    19.03000069   7.23000002  55.37000275
H    21.24000168   7.78999996  54.68000031
H    23.62999916   8.15999985  55.30000305
H    22.55000114   9.15999985  59.27000046
H    14.09000015   8.85999966  59.00000000
H    25.22000122   9.51000023  56.83000183
H    24.40000153  10.15999985  58.23999786
S    13.61999989   7.00999975  54.61999893
C    10.86999989   7.00999975  55.31000137
C    12.17000008   7.32999992  55.59000015
C    12.46999931   7.83999968  56.90000153
C    11.50000000   8.06999969  57.84999847
C    10.14000034   7.85000038  57.50999832
C     9.04999924   8.01999950  58.40999985
C     7.75000000   7.79999971  57.98999786
C     7.46000004   7.26999998  56.70999908
C     8.47999954   7.05999947  55.81999969
C     9.82999992   7.26999998  56.23000336
C    13.90999985   7.96999979  57.04000092
C    14.68999958   7.50999975  55.94999695
C    16.06999969   7.50000000  55.90000153
C     6.12999964   6.61999989  56.39999771
H     5.48921967   7.31061888  55.85177612
H    10.53999996   6.44000006  54.43999863
H    11.85999966   8.50000000  58.77999878
H     9.26000023   8.34000015  59.43000031
H     7.00000000   7.90999985  58.75999832
H     8.31999969   6.53999996  54.86999893
H    16.67000008   7.07999992  55.08999634
H     5.59999990   6.32999992  57.31999969
H     6.34999990   5.69999981  55.83000183
S    17.56999969   9.06999969  53.29999924
C    20.27000046   9.23999977  52.55000305
C    18.98999977   8.84000015  52.25000000
C    18.64999962   8.18000031  51.03000259
C    19.69000053   7.96000004  50.14999771
C    21.02000046   8.38999939  50.40000153
C    22.11999893   8.25000000  49.51000214
C    23.40999985   8.53999996  49.86999893
C    23.74000168   9.04999924  51.16000366
C    22.69000053   9.27999973  52.02000046
C    21.34000015   9.01000023  51.65999985
C    17.20999908   8.07999992  50.80999756
C    16.53000069   8.51000023  51.97999954
C    15.14999962   8.64000034  52.02999878
C    25.15999985   9.48000050  51.44000244
H    25.53112602   8.86621666  52.26075363
H    20.59000015   9.67000008  53.50000000
H    19.42000008   7.44999981  49.22000122
H    21.87999916   7.78999996  48.54999924
H    24.14999962   8.47000027  49.08000183
H    22.90999985   9.72999954  52.98999786
H    14.63000107   9.06000042  52.88000107
H    25.76999855   9.30999947  50.54000092
H    25.29999924  10.47999954  51.86999893
S    14.02999973   7.44000006  48.36999893
C    11.28000069   7.42999983  49.10999680
C    12.61000061   7.63000011  49.41999817
C    13.01000023   8.10000038  50.70999908
C    12.02999973   8.27999973  51.66999817
C    10.65000057   8.25000000  51.36000061
C     9.61000061   8.31999969  52.32999802
C     8.34000015   7.95000029  51.95000076
C     7.96000004   7.57000017  50.63999939
C     8.92000008   7.67000008  49.65999985
C    10.29000092   7.86000013  50.01999664
C    14.45000076   8.28999996  50.86999893
C    15.13000011   7.86999989  49.69999695
C    16.50000000   7.68000031  49.66999817
C     6.54999971   7.11999989  50.30000305
H     6.07410097   7.73085499  49.53288269
H    10.97000027   7.00999975  48.15999985
H    12.28000069   8.59000015  52.68000031
H     9.82999992   8.43999958  53.37999725
H     7.60999966   7.96999979  52.76000214
H     8.56999969   7.44000006  48.66000366
H    16.95999908   7.32999992  48.75000000
H     5.91000032   7.18999958  51.18000031
H     6.61999989   6.10000038  49.92000198
