96

S    16.98999977   8.67000008  59.06000137
C    19.67000008   8.42000008  58.34999847
C    18.35000038   8.25000000  58.01000214
C    17.97999954   7.82000017  56.69000244
C    18.97999954   7.50000000  55.79000092
C    20.32999992   7.83999968  56.06999969
C    21.38999939   7.55999994  55.17000198
C    22.69000053   7.92999983  55.41999817
C    23.05000114   8.36999989  56.72999954
C    22.07999992   8.47000027  57.69000244
C    20.71000099   8.22000027  57.41000366
C    16.53000069   7.75000000  56.59999847
C    15.85999966   8.14000034  57.78999710
C    14.47000027   8.15999985  57.90000153
C    24.48999786   8.63000011  57.11000061
H    24.90280533   8.08196449  57.95696259
H    19.85999870   8.89000034  59.31999969
H    18.64999962   7.09000015  54.84000397
H    21.14000130   7.14999962  54.19000244
H    23.36000061   7.73999977  54.59999847
H    22.44999886   8.71000004  58.68999863
H    13.99000072   8.60000038  58.76999664
H    25.03999901   8.42000008  56.18000031
H    24.64999962   9.72000027  57.12999725
S    13.23999977   7.02000046  54.29999924
C    10.51000023   7.05999947  55.11000061
C    11.84000015   7.28999996  55.35999680
C    12.23999977   7.75000000  56.65999985
C    11.28000069   8.13000011  57.56999969
C     9.89999962   7.88000011  57.36999893
C     8.86999989   8.01000023  58.33000183
C     7.53999996   7.76999998  58.06999969
C     7.17999983   7.16000032  56.84000015
C     8.14999962   7.00000000  55.89000320
C     9.52999973   7.30000019  56.10000229
C    13.68999958   7.76000023  56.81999969
C    14.35999966   7.35000038  55.63000107
C    15.75000000   7.26999998  55.54000092
C     5.73999977   6.81999969  56.53999710
H     5.39193201   7.25330877  55.60234451
H    10.29999924   6.75000000  54.09000015
H    11.61000061   8.65999985  58.47000122
H     9.18000031   8.34000015  59.31999969
H     6.75000000   8.01999950  58.77999878
H     7.86999989   6.72999954  54.86999893
H    16.21000099   6.89000034  54.64000320
H     5.18000031   7.27999973  57.36999893
H     5.63000011   5.73000002  56.68000031
S    13.40000057   4.80999994  51.58000183
C    10.82999992   4.48000002  52.34000397
C    12.13999939   4.21999979  52.68000031
C    12.65999985   3.72000003  53.92000198
C    11.65999985   3.35000014  54.80999756
C    10.27999973   3.50000000  54.56999969
C     9.26999950   3.07999992  55.47999954
C     7.92999983   3.09999990  55.14999771
C     7.55000019   3.75000000  53.95000076
C     8.48999977   4.21999979  53.06000137
C     9.88000011   4.09000015  53.31999969
C    14.11000061   3.74000025  53.95000076
C    14.61999989   4.41000032  52.81000137
C    15.98000050   4.69999981  52.74000168
C     6.09000015   3.91000009  53.57999802
H     5.76293659   3.30564332  52.73389816
H    10.52999973   4.92000008  51.39999771
H    12.01000023   3.00000000  55.77999878
H     9.55999947   2.51999998  56.36000061
H     7.17999983   2.69000006  55.80999756
H     8.27000046   4.59000015  52.05999756
H    16.36999893   5.03999996  51.79000092
H     5.55999994   3.60000014  54.50000000
H     6.01000023   4.99000025  53.41999817
S    17.52000046   3.54999995  56.20999908
C    20.17000008   3.88000011  55.26000214
C    18.81999969   4.09999990  55.13000107
C    18.30999947   4.53999996  53.86000061
C    19.11999893   4.92000008  52.81000137
C    20.52000046   4.76000023  52.97999954
C    21.42999840   5.38000011  52.06999969
C    22.76000023   5.51000023  52.36999893
C    23.23999786   5.01999950  53.61000061
C    22.43999863   4.41000032  54.54000092
C    21.05999947   4.30000019  54.22999954
C    16.86000061   4.46999979  53.81000137
C    16.29999924   3.84999990  54.94999695
C    14.98000050   3.40999985  54.99000168
C    24.71999931   5.22000027  53.87000275
H    25.01127243   4.69428921  54.77933502
H    20.51000214   3.49000001  56.22000122
H    18.73999977   5.40000010  51.91999817
H    20.97999954   5.77000046  51.14999771
H    23.44000053   6.05000019  51.70999908
H    22.86999893   4.13999987  55.50000000
H    14.63000107   3.07000017  55.96000290
H    24.87999916   6.28000021  54.09999847
H    25.26000023   4.90999985  52.97000122
