96

S    16.88999939   8.43999958  59.54000092
C    19.60000038   8.51000023  58.88999939
C    18.30999947   8.19999981  58.50999832
C    17.92000008   7.71000004  57.22000122
C    18.94000053   7.76000023  56.29000092
C    20.28000069   8.14000034  56.52999878
C    21.35999870   7.99000025  55.61999893
C    22.65000153   8.27999973  56.02000427
C    22.93999863   8.78000069  57.31999969
C    21.96000099   8.73000050  58.27999878
C    20.62000084   8.43999958  57.90000153
C    16.47999954   7.65999985  57.02999878
C    15.77999973   8.03999996  58.20999908
C    14.40000057   8.11999989  58.25000000
C    24.30999947   9.15000057  57.83000183
H    24.70847702   8.60209274  58.68388367
H    19.80999947   9.00000000  59.82999802
H    18.60000038   7.40000010  55.31999969
H    21.18000031   7.60999966  54.61999893
H    23.39999962   8.14000034  55.25000000
H    22.17000008   8.98999977  59.31999969
H    13.86000061   8.34999943  59.15999985
H    24.86000061   8.82999992  56.93000031
H    24.41999817  10.21999931  58.02999878
S    13.27999973   7.23000002  54.50000000
C    10.62000084   6.94999981  55.20000076
C    11.90000057   7.27999973  55.61000061
C    12.25000000   7.71000004  56.93000031
C    11.17000008   7.99000025  57.74000168
C     9.81999969   7.69999981  57.41000366
C     8.75000000   7.78999996  58.33000183
C     7.55000019   7.20000029  57.98999786
C     7.32999992   6.51000023  56.77000046
C     8.30999947   6.50000000  55.79000092
C     9.59000015   7.00000000  56.17000198
C    13.68999958   7.82999992  57.06999969
C    14.37000084   7.59999990  55.84999847
C    15.76000023   7.51999950  55.84000015
C     5.89999962   6.11999989  56.50000000
H     5.49615765   6.85683441  55.80567551
H    10.39999962   6.57000017  54.20999908
H    11.36000061   8.34000015  58.75000000
H     9.06000042   8.06999969  59.33000183
H     6.80000019   7.23999977  58.76999664
H     8.17000008   6.28999996  54.73999786
H    16.23999977   7.39000034  54.87999725
H     5.35000038   6.19000006  57.44999695
H     5.82000017   5.09999990  56.11999893
S    17.64999962   8.93999958  53.23999786
C    20.35000038   9.22999954  52.45999908
C    19.04999924   8.93999958  52.14000320
C    18.70000076   8.75000000  50.76000214
C    19.64999962   8.57999992  49.78000259
C    21.01000023   8.53999996  50.18000031
C    22.04999924   8.69999981  49.22999954
C    23.36000061   8.93000031  49.55999756
C    23.71000099   9.06000042  50.93000031
C    22.73999977   9.00000000  51.90000153
C    21.37000084   8.85000038  51.55000305
C    17.25000000   8.64999962  50.63999939
C    16.54999924   8.85000038  51.84999847
C    15.15999985   8.90999985  51.88999939
C    25.12000084   9.44000053  51.31999969
H    25.44801521   9.04781055  52.28264999
H    20.65999985   9.61000061  53.41999817
H    19.27000046   8.69999981  48.76999664
H    21.71999931   8.80999947  48.20000076
H    23.95000076   8.93999958  48.64999771
H    22.92000008   9.32999992  52.91999817
H    14.75000000   9.13000011  52.87000275
H    25.88000107   9.04999924  50.63000107
H    25.22000122  10.52999973  51.35000229
S    14.00000000   8.15999985  48.15999985
C    11.30000019   8.01000023  48.93000031
C    12.60000038   8.36999989  49.22000122
C    12.97000027   8.69000053  50.56000137
C    11.97000027   8.84000015  51.51000214
C    10.64000034   8.42000008  51.27999878
C     9.55000019   8.43999958  52.19999695
C     8.30999947   7.92999983  51.90000153
C     8.01000023   7.53000021  50.56999969
C     9.02000046   7.53000021  49.62999725
C    10.34999943   7.88999987  49.97000122
C    14.42000008   8.71999931  50.72000122
C    15.11000061   8.51000023  49.50000000
C    16.50000000   8.45000076  49.47000122
C     6.58999968   7.22000027  50.14999771
H     6.10625696   7.77488184  49.34613419
H    10.98000050   7.73000002  47.91999817
H    12.30000019   9.11999989  52.50999832
H     9.67000008   8.88000011  53.18999863
H     7.42000008   7.99000025  52.50999832
H     8.73000050   7.44000006  48.59000397
H    17.07999992   8.26000023  48.57999802
H     5.95000029   7.40000010  51.02000427
H     6.51999998   6.14000034  49.98000336
