96

S    16.59000015   8.55000019  59.36000061
C    19.29999924   8.56000042  58.87000275
C    18.04999924   8.26000023  58.40000153
C    17.72999954   7.88000011  57.04999924
C    18.75000000   7.76000023  56.13999939
C    20.06999969   8.07999992  56.56999969
C    21.18999863   7.97999954  55.70000076
C    22.44999886   8.36000061  56.10000229
C    22.76000023   8.73999977  57.43000031
C    21.68999863   8.75000000  58.29999924
C    20.34000015   8.48999977  57.91999817
C    16.29999924   7.73999977  56.81999969
C    15.57000065   8.17000008  57.95999908
C    14.18000031   8.27999973  58.00000000
C    24.15999985   9.22000027  57.71999741
H    24.65228271   8.84900284  58.61894989
H    19.43000031   8.89000034  59.89999771
H    18.53999901   7.50999975  55.10000229
H    21.07999992   7.67000008  54.65999985
H    23.26999855   8.46000004  55.38999939
H    21.81999969   9.02999973  59.34000015
H    13.76999950   8.61999989  58.95000076
H    24.82000160   8.85000038  56.91999817
H    24.27999878  10.31000042  57.69000244
S    13.02000046   7.11000013  54.41999817
C    10.29999924   7.27999973  55.08999634
C    11.61000061   7.55999994  55.40000153
C    12.03999996   7.97999954  56.70000076
C    11.10000038   8.11999989  57.70999908
C     9.72999954   7.92000008  57.41000366
C     8.71000004   8.09000015  58.39000320
C     7.39000034   7.82999992  58.15000153
C     7.05999947   7.17999983  56.93000031
C     8.00000000   6.98999977  55.93000031
C     9.35000038   7.40000010  56.11999893
C    13.48999977   7.99000025  56.81999969
C    14.19000053   7.44000006  55.72000122
C    15.55999947   7.21000004  55.75000000
C     5.64000034   6.75000000  56.68000031
H     5.23947763   7.30071783  55.82888794
H    10.06000042   6.76999998  54.15999985
H    11.38000011   8.43000031  58.70999908
H     9.06000042   8.38000011  59.38000107
H     6.65000010   7.85000038  58.94000244
H     7.73999977   6.63000011  54.93999863
H    16.07999992   6.93000031  54.84000397
H     4.94999981   6.80999994  57.54000092
H     5.75000000   5.68000031  56.47999573
S    16.84999847   9.19000053  53.43999863
C    19.59000015   9.39999962  52.81999969
C    18.31999969   9.00000000  52.48000336
C    17.97999954   8.50000000  51.18000031
C    19.00000000   8.23000050  50.27999878
C    20.29999924   8.67000008  50.61000061
C    21.38999939   8.36000061  49.75000000
C    22.69000053   8.71999931  50.04000092
C    22.96999931   9.44000053  51.23000336
C    21.96000099   9.75000000  52.11000061
C    20.63999939   9.28999996  51.86999893
C    16.55999947   8.48999977  50.89000320
C    15.80999947   8.82999992  52.04999924
C    14.42000008   8.85000038  52.02000046
C    24.38999939   9.86999989  51.52999878
H    24.78888512   9.27167130  52.34914017
H    19.85000038   9.80000019  53.80000305
H    18.90999985   7.82000017  49.27999878
H    21.22999954   7.67000008  48.93000031
H    23.43000031   8.43000031  49.29999924
H    22.11999893  10.15999985  53.11000061
H    13.89999962   9.09000015  52.94000244
H    25.07999802   9.85999966  50.68000031
H    24.27999878  10.90999985  51.86999893
S    13.40000057   7.79999971  48.36000061
C    10.67000008   7.73000002  48.95000076
C    11.96000004   7.96000004  49.38000107
C    12.22000027   8.36000061  50.72999954
C    11.19999981   8.59000015  51.63999939
C     9.88000011   8.38999939  51.17000198
C     8.78999996   8.47000027  52.08000183
C     7.49000025   8.18000031  51.77000046
C     7.22000027   7.92999983  50.38999939
C     8.22000027   7.76999998  49.45999908
C     9.57999992   8.00000000  49.80999756
C    13.66000080   8.50000000  50.90000153
C    14.42999935   8.28999996  49.72000122
C    15.80999947   8.27000046  49.72000122
C     5.78999996   7.59000015  50.06000137
H     5.36413860   8.01586151  49.15149689
H    10.42000008   7.30999994  47.97999954
H    11.31999969   8.71000004  52.70999908
H     8.97000027   8.64999962  53.13999939
H     6.76999998   8.03999996  52.56999969
H     8.02999973   7.30000019  48.50000000
H    16.39999962   7.96000004  48.86000061
H     5.12000036   7.76000023  50.91999817
H     5.78000021   6.50000000  49.98000336
