96

S    17.35999870   9.31999969  59.13999939
C    20.00999832   9.53999996  58.37999725
C    18.78000069   8.97999954  58.15000153
C    18.44000053   8.38999939  56.88000107
C    19.43000031   8.11999989  55.94999695
C    20.75000000   8.52999973  56.25999832
C    21.81999969   8.26000023  55.35999680
C    23.09999847   8.67000008  55.65999985
C    23.31999969   9.50000000  56.79000092
C    22.32999992   9.85999966  57.68000031
C    21.02999878   9.34000015  57.41000366
C    17.00000000   8.27000046  56.72000122
C    16.28999901   8.67000008  57.88000107
C    14.91000080   8.71000004  57.85999680
C    24.77000046   9.84000015  56.98999786
H    25.07563591   9.21451378  57.82872009
H    20.10000038  10.08999920  59.31000137
H    19.20999908   7.63000011  55.00999832
H    21.55999947   7.63000011  54.51000214
H    23.85999870   8.28999996  54.98000336
H    22.34999847  10.59000015  58.47999954
H    14.40000057   9.18000031  58.68999863
H    25.45999908   9.73999977  56.13999939
H    24.86999893  10.90999985  57.22000122
S    13.86999989   7.31999969  54.23999786
C    11.17000008   7.22000027  55.00000000
C    12.44999981   7.64999962  55.26000214
C    12.76000023   8.18000031  56.55000305
C    11.72999954   8.43999958  57.43000031
C    10.40999985   8.05000019  57.11999893
C     9.35999966   8.13000011  58.06999969
C     8.07999992   7.69999981  57.78999710
C     7.73999977   7.27999973  56.47999573
C     8.71000004   7.18999958  55.51000214
C    10.06000042   7.44000006  55.86000061
C    14.19999981   8.34999943  56.70999908
C    14.89999962   7.86999989  55.56999969
C    16.28999901   7.90999985  55.56000137
C     6.37000036   6.69000053  56.23000336
H     5.97021723   7.23256207  55.37332153
H    11.11999989   6.71999979  54.02999878
H    11.94000053   8.85000038  58.41999817
H     9.52000046   8.38000011  59.12000275
H     7.39000034   7.60999966  58.62999725
H     8.50000000   6.98000002  54.45999908
H    16.87000084   7.51999950  54.72999954
H     5.61999989   6.72999954  57.02999878
H     6.48000002   5.61999989  56.04000092
S    17.61000061   9.48999977  52.88000107
C    20.28000069   9.68999958  52.22000122
C    19.03000069   9.26000023  51.84000015
C    18.68999863   8.69000053  50.56999969
C    19.71999931   8.65999985  49.64000320
C    21.02000046   9.10000038  49.94999695
C    22.13999939   8.92000008  49.08000183
C    23.39999962   9.34000015  49.43000031
C    23.64000130  10.10000038  50.61000061
C    22.60000038  10.15999985  51.52000046
C    21.28000069   9.72000027  51.22000122
C    17.23999977   8.64000034  50.40000153
C    16.52000046   8.97999954  51.56999969
C    15.14000034   9.11000061  51.56000137
C    25.06999969  10.26999950  51.06999969
H    25.37683105   9.49221706  51.76929092
H    20.34000015  10.01000023  53.26000214
H    19.54000092   8.23000050  48.66000366
H    22.10000038   8.34999943  48.15999985
H    24.23000145   9.07999992  48.79000092
H    22.86999893  10.29999924  52.56000137
H    14.59000015   9.64999962  52.32999802
H    25.69999886  10.19999981  50.17000198
H    25.22000122  11.26999950  51.49000168
S    14.00000000   7.92999983  47.98999786
C    11.31999969   7.55000019  48.82999802
C    12.60000038   7.99000025  49.09000015
C    12.96000004   8.51000023  50.38000107
C    12.03999996   8.56000042  51.39999771
C    10.67999935   8.26000023  51.12999725
C     9.59999943   8.39999962  52.04999924
C     8.27999973   8.14999962  51.73999786
C     7.95000029   7.78999996  50.40999985
C     8.96000004   7.60999966  49.48999786
C    10.32999992   7.76999998  49.81999969
C    14.40999985   8.60999966  50.47000122
C    15.14000034   8.25000000  49.31000137
C    16.53000069   8.27000046  49.25000000
C     6.53999996   7.36000013  50.04000092
H     6.02723408   8.04368782  49.36343384
H    10.90999985   7.30000019  47.85999680
H    12.39999962   8.73999977  52.41000366
H     9.72999954   8.67000008  53.09000015
H     7.59999990   8.27000046  52.57999802
H     8.75000000   7.14999962  48.53000259
H    16.95000076   8.06999969  48.27000046
H     5.91000032   7.25000000  50.91999817
H     6.60000038   6.39999962  49.52000046
