96

S    16.64999962   8.23000050  59.54000092
C    19.34999847   8.50000000  58.83999634
C    18.09000015   8.05999947  58.50999832
C    17.79999924   7.50000000  57.22999954
C    18.86999893   7.26000023  56.38999939
C    20.19000053   7.62000036  56.73999786
C    21.25000000   7.48000050  55.79999924
C    22.55000114   7.85000038  56.02000427
C    22.80999947   8.39999962  57.29999924
C    21.83000183   8.57999992  58.25000000
C    20.46999931   8.26000023  58.00000000
C    16.36000061   7.42000008  57.00000000
C    15.62999916   7.88999987  58.11999893
C    14.26000023   8.13000011  58.09999847
C    24.13999939   9.09000015  57.45999908
H    24.58725929   8.72083282  58.38291550
H    19.47000122   8.97999954  59.80999756
H    18.60000038   6.90999985  55.38999939
H    20.94000053   7.09999990  54.82999802
H    23.34000015   7.81000042  55.27000046
H    22.00000000   9.13000011  59.16999817
H    13.69999981   8.47000027  58.95999908
H    24.82000160   8.96000004  56.60999680
H    23.95999908  10.17000008  57.56000137
S    13.21000004   7.07000017  54.40999985
C    10.51000023   6.98000002  55.11000061
C    11.79999924   7.32999992  55.45000076
C    12.10000038   7.73999977  56.79000092
C    11.11999989   7.96000004  57.72999573
C     9.80000019   7.53999996  57.43999863
C     8.73000050   7.50000000  58.37999725
C     7.46000004   7.11999989  58.01000214
C     7.18999958   6.67000008  56.68000031
C     8.19999981   6.65999985  55.75000000
C     9.51000023   7.04999971  56.11999893
C    13.53999996   7.73999977  56.95999908
C    14.27000046   7.36000013  55.79999924
C    15.64000034   7.14999962  55.83000183
C     5.82999992   6.12999964  56.31999969
H     5.40964556   6.63584995  55.45079422
H    10.25000000   6.74000025  54.08000183
H    11.42000008   8.22000027  58.74000168
H     8.97999954   7.95000029  59.33000183
H     6.63000011   7.21000004  58.69999695
H     8.10000038   6.25000000  54.73999786
H    16.21000099   6.91999960  54.93999863
H     5.09000015   6.25000000  57.11999893
H     6.05000019   5.07000017  56.12999725
S    17.28999901   8.97999954  53.37999725
C    20.02000046   8.64999962  52.80000305
C    18.71000099   8.53999996  52.39999771
C    18.36000061   8.26000023  51.04000092
C    19.40000153   8.09000015  50.13999939
C    20.72000122   8.47999954  50.48999786
C    21.77000046   8.38999939  49.52999878
C    23.02999878   8.80000019  49.87999725
C    23.35000038   9.06999969  51.24000168
C    22.39999962   9.06000042  52.22999954
C    21.07999992   8.67000008  51.86000061
C    16.92000008   8.36000061  50.84999847
C    16.18999863   8.67000008  52.02000046
C    14.80999947   8.85999966  52.01000214
C    24.79999924   9.26999950  51.63000107
H    25.14943695   8.69236088  52.48576355
H    20.29999924   9.02000046  53.79000092
H    19.09000015   7.69000006  49.18000031
H    21.52000046   8.03999996  48.53000259
H    23.87000084   8.89000034  49.19000244
H    22.46999931   9.22000027  53.29999924
H    14.30999947   9.27999973  52.88000107
H    25.40999985   9.11999989  50.72999954
H    24.96999931  10.29000092  51.98999786
S    13.80000019   7.63000011  48.36000061
C    11.10000038   7.44000006  49.06000137
C    12.35999966   7.88999987  49.36999893
C    12.69000053   8.47000027  50.63999939
C    11.69999981   8.55000019  51.59999847
C    10.39999962   8.10999966  51.27999878
C     9.35999966   8.30000019  52.23999786
C     8.09000015   7.82000017  52.00000000
C     7.75000000   7.46999979  50.65999985
C     8.69000053   7.31999969  49.66999817
C    10.05000019   7.53999996  50.00999832
C    14.13000011   8.51000023  50.84000015
C    14.86999989   8.03999996  49.72000122
C    16.23999977   7.85000038  49.73999786
C     6.30000019   7.11999989  50.40999985
H     5.90726328   7.61984682  49.52455521
H    11.00999928   7.00000000  48.06999969
H    11.94000053   8.94999981  52.58999634
H     9.55000019   8.73000050  53.22000122
H     7.26000023   7.88999987  52.69000244
H     8.38000011   6.90000010  48.70999908
H    16.77999878   7.37999964  48.92000198
H     5.68000031   7.27999973  51.30000305
H     6.24000025   6.09000015  50.05000305
