96

S    17.13999939   8.96000004  59.45999908
C    19.77000046   9.13000011  58.74000168
C    18.50000000   8.76000023  58.34000015
C    18.20000076   8.15999985  57.08000183
C    19.22000122   7.94000053  56.17000198
C    20.48000145   8.51000023  56.50000000
C    21.57999992   8.34999943  55.61000061
C    22.86000061   8.73999977  55.90999985
C    23.19999886   9.06000042  57.25000000
C    22.18000031   9.15000057  58.18000031
C    20.81000137   9.04999924  57.78999710
C    16.77000046   7.92999983  56.97999954
C    16.10000038   8.36000061  58.15999985
C    14.73000050   8.55000019  58.13999939
C    24.61000061   9.43000031  57.65999603
H    24.97975540   8.81137276  58.47772598
H    19.96000099   9.44000053  59.75999832
H    19.03000069   7.46999979  55.20999908
H    21.32999802   7.72000027  54.75999832
H    23.68000031   8.60999966  55.20999908
H    22.29000092   9.28999996  59.25000000
H    14.22000027   8.93999958  59.02999878
H    25.29999924   9.44999981  56.81000137
H    24.54000092  10.44000053  58.06999969
S    13.48999977   7.63000011  54.52000046
C    10.80000019   7.79999971  55.27999878
C    12.13000107   7.97999954  55.59999847
C    12.48999977   8.22000027  56.95999908
C    11.51000023   8.53999996  57.88000107
C    10.14000034   8.27999973  57.58999634
C     9.13000011   8.23000050  58.59000397
C     7.83999968   7.90999985  58.23999786
C     7.49000025   7.42999983  56.95000076
C     8.45000076   7.44999981  55.97000122
C     9.78999996   7.83999968  56.26999664
C    13.94000053   8.17000008  57.04999924
C    14.63000107   7.78999996  55.86999893
C    16.01000023   7.67000008  55.83000183
C     6.02999973   7.16000032  56.63000107
H     5.53633928   7.82536888  55.92170334
H    10.69000053   7.40000010  54.27000046
H    11.92000008   8.63000011  58.88000107
H     9.39999962   8.46000004  59.61000061
H     7.09000015   8.22000027  58.95999908
H     8.30000019   7.09999990  54.94999695
H    16.43000031   7.34000015  54.87999725
H     5.47999954   7.11999989  57.57999802
H     6.10000038   6.15000010  56.18999863
S    13.48000050   5.55000019  51.45999908
C    10.81999969   5.26999998  52.16999817
C    12.13000107   4.97000027  52.44999695
C    12.56999969   4.23999977  53.60000229
C    11.61999893   3.89999986  54.54000092
C    10.24000072   4.07999992  54.31000137
C     9.15000057   3.60000014  55.08999634
C     7.82999992   3.78999996  54.75999832
C     7.48000050   4.51999998  53.59000397
C     8.50000000   5.00999975  52.81000137
C     9.88000011   4.86999989  53.15000153
C    14.01999950   4.32999992  53.74000168
C    14.65999985   4.94999981  52.63999939
C    16.00000000   5.32999992  52.70000076
C     6.02999973   4.63999987  53.18999863
H     5.77435732   3.88017416  52.45147705
H    10.43000031   5.61999989  51.22000122
H    11.89000034   3.21000004  55.33000183
H     9.43000031   2.86999989  55.84999847
H     7.17999983   3.38000011  55.52000046
H     8.26000023   5.51999998  51.88000107
H    16.51000023   5.88999987  51.93000031
H     5.49000025   4.42000008  54.12000275
H     5.73999977   5.65999985  52.90999985
S    17.34000015   3.70000005  56.06999969
C    19.98999977   4.33999968  55.47000122
C    18.64999962   4.55999994  55.24000168
C    18.20999908   5.18000031  54.02999878
C    19.15999985   5.59999990  53.11999893
C    20.55000114   5.59000015  53.34999847
C    21.51000023   6.11000013  52.43000031
C    22.85000038   5.98000002  52.74000168
C    23.26999855   5.26999998  53.88999939
C    22.30999947   4.74000025  54.72000122
C    20.90999985   4.96000004  54.59000015
C    16.79000092   4.94000006  53.79000092
C    16.17000008   4.19999981  54.82999802
C    14.81999969   3.88000011  54.79999924
C    24.71999931   4.85000038  53.95000076
H    25.20247841   5.27571774  54.82981873
H    20.35000038   3.63999987  56.22000122
H    18.89000130   5.86999989  52.09999847
H    21.18999863   6.42000008  51.44000244
H    23.57000160   6.05999994  51.93000031
H    22.69000053   3.98999977  55.40999985
H    14.46000004   3.30999994  55.63999939
H    25.20999908   5.13999987  53.01000214
H    24.72999954   3.75000000  54.05000305
