96

S    16.26000023   9.22000027  59.22000122
C    19.02000046   9.22000027  58.57999802
C    17.72999954   8.85000038  58.29000092
C    17.40999985   8.38000011  56.97000122
C    18.47999954   8.13000011  56.12999725
C    19.81999969   8.50000000  56.38999939
C    20.82999992   8.46000004  55.38000107
C    22.06000137   9.04999924  55.54000092
C    22.34000015   9.55000019  56.84000015
C    21.38999939   9.68000031  57.84000015
C    20.07999802   9.13999939  57.64999771
C    15.97000027   8.38999939  56.73999786
C    15.19999981   8.82999992  57.84999847
C    13.81999969   8.96000004  57.88000107
C    23.74000168   9.98999977  57.22000122
H    24.23469734   9.35908318  57.95846176
H    19.23999977   9.76000023  59.48999786
H    18.26000023   8.01000023  55.06999969
H    20.66999817   7.88000011  54.47999954
H    22.77000046   9.15000057  54.72999954
H    21.57999992  10.10000038  58.81999969
H    13.27000046   9.31999969  58.74000168
H    24.36000061  10.11000061  56.31999969
H    23.52000046  11.00999928  57.57999802
S    12.79999924   7.39000034  54.38000107
C    10.07999992   7.22000027  55.08999634
C    11.36000061   7.60999966  55.38999939
C    11.64999962   8.21000004  56.65999985
C    10.67000008   8.34000015  57.62000275
C     9.32999992   8.00000000  57.31999969
C     8.26000023   8.11999989  58.26000214
C     6.98999977   7.78999996  57.87000275
C     6.65000010   7.34000015  56.56999969
C     7.69000006   7.26000023  55.65999985
C     9.02999973   7.59999990  55.97000122
C    13.07999992   8.47999954  56.79000092
C    13.82999992   8.10999966  55.63999939
C    15.21000004   8.02999973  55.61999893
C     5.26999998   6.85999966  56.18999863
H     4.82917500   7.45013666  55.38656235
H     9.81999969   6.71000004  54.16999817
H    10.88999939   8.67999935  58.62999725
H     8.46000004   8.42000008  59.27999878
H     6.17000008   7.92999983  58.57999802
H     7.51999950   6.80000019  54.68999863
H    15.78999996   7.53000021  54.85000229
H     4.65000010   6.88000011  57.09000015
H     5.27999973   5.79999971  55.90000153
S    13.48999977   5.40999985  51.70000076
C    10.88000107   4.55999994  52.11000061
C    12.18999958   4.55000019  52.54000092
C    12.64000034   4.17000008  53.83999634
C    11.65999985   3.63999987  54.66999817
C    10.31000042   3.53999996  54.27999878
C     9.26999950   3.05999994  55.13000107
C     7.95000029   3.31999993  54.86999893
C     7.57999992   4.07000017  53.73000336
C     8.52000046   4.46000004  52.80000305
C     9.89000034   4.11000013  53.02999878
C    14.06999969   4.34999990  54.00000000
C    14.68000031   5.13000011  52.97999954
C    15.98999977   5.59000015  52.84999847
C     6.12999964   4.48999977  53.60000229
H     5.67401457   3.93426752  52.78065109
H    10.62999916   5.00999975  51.16000366
H    11.84999943   3.40999985  55.70999908
H     9.63000011   2.59000015  56.04000092
H     7.26000023   3.05000019  55.66999817
H     8.23999977   4.98000002  51.88999939
H    16.32999992   6.28999996  52.09000015
H     5.61999989   4.19000006  54.52000046
H     5.98000002   5.55000019  53.36999893
S    17.48999977   3.84999990  56.11999893
C    20.13999939   4.48999977  55.40000153
C    18.79999924   4.51999998  55.12000275
C    18.29000092   5.03999996  53.88000107
C    19.15999985   5.58000040  52.95000076
C    20.53999901   5.71000004  53.25000000
C    21.44000053   6.32000017  52.32999802
C    22.76000023   6.32999992  52.69000244
C    23.26999855   5.92000008  53.95000076
C    22.39000130   5.28999996  54.79000092
C    20.98999977   5.19999981  54.51000214
C    16.84000015   4.98000002  53.76999664
C    16.31000137   4.23999977  54.86000061
C    14.96999931   3.88000011  54.97000122
C    24.69000053   6.28000021  54.29999924
H    25.04439735   5.67752504  55.13637543
H    20.62000084   3.98999977  56.23000336
H    18.77000046   6.05000019  52.04999924
H    21.09000015   6.76999998  51.39999771
H    23.54000092   6.71999979  52.04000092
H    22.63000107   4.76000023  55.70999908
H    14.55999947   3.47000003  55.89000320
H    24.67000008   7.31999969  54.65000153
H    25.36000061   6.17000008  53.43999863
