96

S    17.14999962   8.55000019  59.20000076
C    19.85000038   8.64000034  58.59000397
C    18.57999992   8.27999973  58.18999863
C    18.25000000   7.82999992  56.88000107
C    19.32999992   7.69999981  56.03000259
C    20.65999985   8.05000019  56.36000061
C    21.76000214   8.02999973  55.45000076
C    23.02999878   8.34999943  55.87999725
C    23.21000099   8.93999958  57.15000153
C    22.20999908   9.06000042  58.09000015
C    20.93000031   8.57999992  57.67000198
C    16.79999924   7.81000042  56.70999908
C    16.05999947   8.23999977  57.84000015
C    14.68000031   8.43000031  57.93000031
C    24.60000038   9.47000027  57.43000031
H    25.08676910   8.90448952  58.22457886
H    20.15000153   8.98999977  59.56999969
H    19.12999916   7.50000000  54.98000336
H    21.54999924   7.67000008  54.43999863
H    23.81000137   8.30999947  55.13000107
H    22.46999931   9.48000050  59.06000137
H    14.23999977   8.67999935  58.88999939
H    25.17000008   9.43000031  56.49000168
H    24.65999985  10.55999947  57.56999969
S    13.50999928   7.17000008  54.38999939
C    10.82999992   6.98000002  55.07999802
C    12.10999966   7.34000015  55.45999908
C    12.48999977   7.88000011  56.72999954
C    11.44999981   8.05000019  57.62000275
C    10.14999962   7.55999994  57.36000061
C     9.15000057   7.76000023  58.34999847
C     7.86999989   7.34000015  58.09000015
C     7.49000025   6.78999996  56.84000015
C     8.46000004   6.63999987  55.87999725
C     9.81999969   7.00000000  56.07999802
C    13.93000031   8.07999992  56.81000137
C    14.65000057   7.64999962  55.65999985
C    16.02000046   7.44999981  55.59999847
C     6.03999996   6.53999996  56.49000168
H     5.56362534   7.23678684  55.80032349
H    10.75000000   6.56000042  54.08000183
H    11.59999943   8.47000027  58.61999893
H     9.42000008   8.34000015  59.22999954
H     7.17999983   7.77999973  58.81000137
H     8.19000053   6.38999987  54.86000061
H    16.56999969   7.20000029  54.69999695
H     5.51999998   6.48000002  57.44999695
H     6.00000000   5.51999998  56.09000397
S    17.21999931   9.11999989  53.09999847
C    19.95000076   9.17000008  52.49000168
C    18.68999863   8.73000050  52.18000031
C    18.30999947   8.15999985  50.91999817
C    19.36000061   7.92000008  50.05000305
C    20.69999886   8.30999947  50.31000137
C    21.77999878   8.10000038  49.40000153
C    23.05000114   8.48999977  49.75999832
C    23.36999893   9.19000053  50.94999695
C    22.32000160   9.42000008  51.81000137
C    21.00000000   8.96000004  51.55000305
C    16.88999939   8.14000034  50.61999893
C    16.18999863   8.67999935  51.72000122
C    14.81999969   8.89999962  51.72999954
C    24.75000000   9.71000004  51.26999664
H    25.22640610   9.14826870  52.07348633
H    20.19000053   9.65999985  53.43000031
H    19.18000031   7.55999994  49.03999710
H    21.65999985   7.53999996  48.47999954
H    23.81999969   8.30999947  49.01000214
H    22.53999901  10.01000023  52.69000244
H    14.42000008   9.35000038  52.63999939
H    25.40999985   9.59999943  50.38999939
H    24.64999962  10.76000023  51.58000183
S    13.59000015   7.68000031  48.18999863
C    10.86999989   7.76999998  48.87000275
C    12.18000031   8.03999996  49.20999908
C    12.56000042   8.42000008  50.52999878
C    11.59999943   8.55000019  51.52000046
C    10.24000072   8.30999947  51.20999908
C     9.23999977   8.25000000  52.22000122
C     7.90000010   8.13000011  51.93000031
C     7.55999994   7.81000042  50.58000183
C     8.51000023   7.73000002  49.58000183
C     9.86999989   8.01999950  49.85000229
C    14.01000023   8.51000023  50.65999985
C    14.72000027   8.14000034  49.47999954
C    16.07999992   7.88000011  49.50000000
C     6.25999975   7.13000011  50.26000214
H     5.78237391   7.77871609  49.52573776
H    10.65000057   7.28999996  47.91999817
H    11.84999943   8.82999992  52.54000092
H     9.57999992   8.30000019  53.25000000
H     7.11999989   8.01000023  52.67000198
H     8.31999969   7.36999989  48.57999802
H    16.44000053   7.51999950  48.54000092
H     5.52999973   7.20000029  51.07999802
H     6.51999998   6.10000038  49.99000168
