96

S    16.84999847   8.48999977  59.52999878
C    19.56999969   8.86999989  58.77999878
C    18.29000092   8.46000004  58.48999786
C    18.00000000   8.05000019  57.15999985
C    18.98999977   7.88999987  56.20999908
C    20.29999924   8.32999992  56.47999573
C    21.38999939   8.19000053  55.56999969
C    22.67000008   8.53999996  55.93000031
C    22.92000008   9.06000042  57.22999954
C    21.91999817   9.21000004  58.15999985
C    20.59000015   8.84000015  57.80000305
C    16.56999969   7.86000013  56.93999863
C    15.84000015   8.17000008  58.11000061
C    14.45000076   8.22000027  58.13999939
C    24.37000084   9.10000038  57.63999939
H    24.73234367   8.31847286  58.30784988
H    19.78000069   9.11999989  59.81999969
H    18.60000038   7.57000017  55.25000000
H    21.18000031   7.62000036  54.66999817
H    23.51000023   8.36000061  55.27000046
H    22.23999977   9.32999992  59.19000244
H    13.93000031   8.36999989  59.08000183
H    24.97999954   9.11000061  56.72999954
H    24.65999985  10.07999992  58.02000046
S    13.43000031   7.23999977  54.43999863
C    10.65999985   7.14999962  55.12000275
C    11.97999954   7.35000038  55.45000076
C    12.28999996   7.83999968  56.77000046
C    11.30000019   7.86999989  57.74000168
C     9.92999935   7.71000004  57.42000198
C     8.85999966   7.77999973  58.34999847
C     7.60999966   7.26999998  58.09000015
C     7.34000015   6.84000015  56.77000046
C     8.30000019   6.84999990  55.79000092
C     9.63999939   7.22000027  56.10000229
C    13.71999931   7.96999979  56.97000122
C    14.47999954   7.57999992  55.83000183
C    15.85999966   7.64999962  55.75000000
C     5.92999983   6.35999966  56.50000000
H     5.59684610   6.77821398  55.55015564
H    10.31000042   6.83000040  54.13999939
H    11.52999973   8.14999962  58.75999832
H     9.21000004   8.03999996  59.34000015
H     6.77999973   7.23999977  58.79000092
H     8.18000031   6.32999992  54.84000397
H    16.46000099   7.40999985  54.86999893
H     5.25000000   6.70000029  57.29000092
H     5.98000002   5.26999998  56.39999771
S    17.34000015   9.10000038  53.13000107
C    20.03000069   8.93999958  52.49000168
C    18.72999954   8.73999977  52.09000015
C    18.34000015   8.31999969  50.77000046
C    19.34000015   8.34999943  49.80999756
C    20.65000153   8.78999996  50.11000061
C    21.70000076   8.80000019  49.15999985
C    23.02000046   9.02999973  49.45000076
C    23.31999969   9.40999985  50.79000092
C    22.39999962   9.23999977  51.79000092
C    21.02999878   9.00000000  51.49000168
C    16.88999939   8.23000050  50.65999985
C    16.21999931   8.67000008  51.81999969
C    14.82999992   8.69000053  51.91999817
C    24.72999954   9.80000019  51.18000031
H    25.21309471   9.06115055  51.81938934
H    20.28000069   9.30999947  53.48999786
H    19.12999916   7.92000008  48.82999802
H    21.47999954   8.47000027  48.13999939
H    23.75999832   8.84000015  48.67000198
H    22.62000084   9.43000031  52.84000015
H    14.32999992   9.18000031  52.75000000
H    25.31999969  10.07999992  50.30000305
H    24.63999939  10.75000000  51.70999908
S    13.59000015   7.75000000  48.29000092
C    10.92000008   7.55999994  49.13000107
C    12.23999977   7.77999973  49.43999863
C    12.60000038   8.30999947  50.72000122
C    11.63000011   8.60000038  51.65999985
C    10.26999950   8.30999947  51.38999939
C     9.25000000   8.51000023  52.36000061
C     7.96000004   8.10999966  52.09000015
C     7.68000031   7.44999981  50.86999893
C     8.56000042   7.42999983  49.80999756
C     9.92000008   7.75000000  50.11000061
C    14.04999924   8.27000046  50.83000183
C    14.73999977   7.96999979  49.62999725
C    16.11999893   7.96999979  49.52000046
C     6.28999996   6.93000031  50.56999969
H     5.94153929   7.32824039  49.61706543
H    10.57000065   7.03000021  48.23999786
H    12.02999973   8.97000027  52.60000229
H     9.51000023   8.76999950  53.37999725
H     7.30000019   8.06999969  52.95000076
H     8.22000027   7.14999962  48.81999969
H    16.59000015   7.69999981  48.57999802
H     5.66999960   7.36999989  51.36000061
H     6.11999989   5.84999990  50.68999863
