96

S    12.34000015  16.46999931  44.23999786
C     9.63000011  16.64999962  45.06999969
C    10.90999985  16.28000069  45.38000107
C    11.30000019  15.90000057  46.70999908
C    10.34000015  15.82999992  47.69000244
C     8.94999981  16.06999969  47.34000397
C     7.90000010  16.01000023  48.34999847
C     6.60000038  16.50000000  48.00000000
C     6.28999996  17.05999947  46.70000076
C     7.37999964  17.22999954  45.83000183
C     8.61999989  16.62999916  46.07999802
C    12.75000000  15.80999947  46.81000137
C    13.40000057  15.97000027  45.52000046
C    14.80999947  15.97000027  45.51000214
C     4.99000025  17.61000061  46.36000061
H     4.58666945  17.15713882  45.45427322
H     9.47000027  17.14999962  44.12000275
H    10.59999943  15.73999977  48.75000000
H     8.17000008  15.60999966  49.33000183
H     5.88999987  16.50000000  48.82999802
H     7.26999998  17.73999977  44.87999725
H    15.26000023  16.25000000  44.55999756
H     4.34999990  17.39999962  47.22999954
H     5.00999975  18.70000076  46.35000229
S    16.00000000  15.44999981  49.22999954
C    18.65999985  15.19999981  48.44999695
C    17.38000107  15.48999977  48.09000015
C    16.97999954  15.70000076  46.72999954
C    17.94999886  15.62999916  45.73999786
C    19.23999977  15.31999969  46.04999924
C    20.22999954  15.01999950  45.02999878
C    21.50000000  14.85000038  45.44000244
C    21.87000084  14.89999962  46.79999924
C    20.95000076  15.05000019  47.84000015
C    19.61000061  15.17000008  47.45999908
C    15.54999924  15.76000023  46.63999939
C    14.93000031  15.65000057  47.88000107
C    13.53999996  15.70000076  47.97999954
C    23.23999786  14.42000008  47.23999786
H    23.68745422  15.00982571  48.03998947
H    18.92000008  15.00000000  49.48999786
H    17.71000099  15.62999916  44.68000031
H    19.92000008  15.08999920  44.00000000
H    22.29000092  14.55000019  44.77000427
H    21.14000130  15.11000061  48.90999603
H    13.07999992  15.57999992  48.95000076
H    23.85999870  14.44000053  46.33999634
H    23.23999786  13.35000038  47.48000336
S    15.90999985  12.90999985  52.18999863
C    18.60999870  12.60000038  51.26999664
C    17.22999954  12.43000031  51.04000092
C    16.64999962  11.89000034  49.82999802
C    17.56000137  11.51000023  48.83999634
C    18.96000099  11.51999950  49.06000137
C    19.85999870  10.84000015  48.16999817
C    21.21999931  10.86999989  48.39000320
C    21.68000031  11.44000053  49.66999817
C    20.85000038  11.94000053  50.56999969
C    19.50000000  12.06999969  50.31000137
C    15.25000000  12.11999989  49.73999786
C    14.67000008  12.64999962  50.93000031
C    13.31999969  12.96000004  51.02000427
C    23.19000053  11.14999962  50.10000229
H    23.43410683  11.40108013  51.13221741
H    18.98999977  13.01000023  52.21000290
H    17.20000076  10.93999958  47.98999786
H    19.56999969  10.36999893  47.23999786
H    21.83000183  10.26000023  47.74000168
H    21.22999954  12.06999969  51.58000183
H    12.93000031  13.26000023  51.97999954
H    23.38999939  10.08999920  49.91000366
H    23.92999840  11.76000023  49.55999756
S    11.78999996  11.95000076  47.56999969
C     9.06999969  12.35999966  48.43999863
C    10.44000053  12.32999992  48.64999771
C    11.02000046  12.76999950  49.92000198
C    10.14000034  13.25000000  50.80999756
C     8.71000004  13.25000000  50.65000153
C     7.92000008  13.96999931  51.56999969
C     6.51000023  14.13000011  51.31999969
C     5.96000004  13.53999996  50.13000107
C     6.76000023  12.97999954  49.20000076
C     8.15999985  12.74000072  49.43999863
C    12.48999977  12.75000000  49.97000122
C    13.03999996  12.30999947  48.77999878
C    14.34999943  11.84999943  48.74000168
C     4.55999994  13.88000011  49.68000031
H     4.45536423  13.52124882  48.65606308
H     8.64999962  12.23999977  47.43999863
H    10.57000065  13.73999977  51.68000031
H     8.38000011  14.45000076  52.43000031
H     5.92999983  14.85000038  51.88999939
H     6.30000019  12.86000061  48.22000122
H    14.72000027  11.38000011  47.83000183
H     4.48999977  14.96999931  49.72999954
H     3.89999986  13.38000107  50.40000153
