96

S    11.98999977  17.02000046  44.15000153
C     9.35000038  17.17000008  44.86000061
C    10.59000015  16.72000122  45.17000198
C    10.88000107  16.10999870  46.39999771
C     9.88000011  15.93000031  47.39999771
C     8.60999966  16.47999954  47.21000290
C     7.59000015  16.36000061  48.20999908
C     6.28999996  16.76000023  47.84999847
C     6.00000000  17.30999947  46.60999680
C     6.93000031  17.50000000  45.61999893
C     8.30000019  17.02000046  45.89000320
C    12.35000038  15.88999939  46.46999741
C    13.09000015  16.28000069  45.22999573
C    14.47000027  16.21000099  45.19000244
C     4.61999989  17.85000038  46.27999878
H     4.13803291  17.22344398  45.52951050
H     9.10000038  17.54999924  43.87000275
H    10.11999989  15.44999981  48.34000015
H     7.85000038  15.86999989  49.13999939
H     5.38000011  16.63999939  48.43000031
H     6.63000011  17.90999985  44.65999985
H    14.96000099  16.46999931  44.25000000
H     4.01999998  17.79999924  47.18999863
H     4.76000023  18.88000107  45.94999695
S    15.53999996  15.13000011  48.89999771
C    18.25000000  15.07999992  48.27999878
C    16.97000122  15.29000092  47.87000275
C    16.64999962  15.59000015  46.47999573
C    17.64000130  15.53999996  45.56999969
C    18.92000008  15.34999943  45.97999954
C    19.95000076  15.34999943  45.01999664
C    21.18999863  14.85999966  45.34000015
C    21.48999977  14.53999996  46.73999786
C    20.52999878  14.73000050  47.70000076
C    19.22000122  15.13000011  47.37999725
C    15.21000004  15.72000027  46.29000092
C    14.51000023  15.39000034  47.49000168
C    13.12000084  15.46000004  47.56999969
C    22.89999962  14.19999981  47.22999954
H    23.15380096  14.70760250  48.16060257
H    18.42000008  14.73000050  49.29999924
H    17.51000023  15.53999996  44.48999786
H    19.75000000  15.65999985  44.00000000
H    22.03000069  14.75000000  44.66999817
H    20.68000031  14.52000046  48.75999832
H    12.56999969  15.10000038  48.43000031
H    23.52999878  14.47000027  46.37000275
H    22.90999985  13.10999966  47.34000397
S    11.64999962  16.60000038  50.72000122
C     9.18000031  17.11000061  51.42000198
C    10.38000011  16.60000038  51.76000214
C    10.67000008  16.35000038  53.13999939
C     9.64999962  16.31999969  54.06000137
C     8.36000061  16.70999908  53.63999939
C     7.20000029  16.60000038  54.50000000
C     5.93999958  17.07999992  54.08000183
C     5.78000021  17.61999893  52.81999969
C     6.85999966  17.59000015  52.01000214
C     8.11999989  17.12000084  52.34000397
C    12.09000015  16.26000023  53.26000214
C    12.79999924  16.46000099  52.08000183
C    14.22000027  16.53000069  52.00000000
C     4.46999979  18.12999916  52.38999939
H     3.97965384  17.35121536  51.80591202
H     9.02999973  17.54999924  50.44000244
H     9.94999981  16.11999893  55.07999802
H     7.40000010  16.22999954  55.50000000
H     5.14999962  17.20000076  54.80999756
H     6.89000034  18.00000000  51.00000000
H    14.75000000  16.61999893  51.05999756
H     3.82999992  18.45000076  53.22000122
H     4.67000008  19.02000046  51.77999878
S    15.19000053  15.85000038  55.84999847
C    17.78000069  15.44000053  55.28999710
C    16.55999947  15.81999969  54.81999969
C    16.31999969  16.05999947  53.43999863
C    17.36999893  15.93000031  52.55000305
C    18.68999863  15.62000084  52.98999786
C    19.76000023  15.52999973  52.04999924
C    20.98999977  15.19999981  52.49000168
C    21.21999931  14.98000050  53.90999603
C    20.19000053  15.03999901  54.77000427
C    18.86999893  15.31000042  54.38000107
C    14.89999962  16.25000000  53.15999985
C    14.22999954  16.10000038  54.40000153
C    12.84999943  16.18000031  54.43999863
C    22.56000137  14.56999969  54.29999924
H    22.94276810  15.09720707  55.17386627
H    17.95999908  15.42000008  56.36000061
H    17.26000023  15.98999977  51.46999741
H    19.62000084  15.72999954  50.98999786
H    21.77999878  15.03999901  51.77000046
H    20.32999992  14.75999928  55.80999756
H    12.20000076  16.20000076  55.31000137
H    23.26999855  14.68999958  53.47000122
H    22.36999893  13.52000046  54.54000092
