96

S    12.25000000  16.61000061  44.29000092
C     9.55999947  17.12000084  44.93000031
C    10.80000019  16.70999908  45.33000183
C    11.13999939  16.28999901  46.65000153
C    10.14999962  16.18999863  47.57999802
C     8.82000065  16.52000046  47.18999863
C     7.82999992  16.54000092  48.23999786
C     6.54999971  16.87999916  47.91999817
C     6.14000034  17.27000046  46.59999847
C     7.11999989  17.35999870  45.59000015
C     8.51000023  17.00000000  45.89000320
C    12.63000011  16.11999893  46.84000015
C    13.31999969  16.23999977  45.59000015
C    14.67000008  16.18999863  45.43000031
C     4.73000002  17.61000061  46.25000000
H     4.41053677  16.94929123  45.44408035
H     9.40999985  17.45000076  43.90999603
H    10.36999893  16.15999985  48.63999939
H     8.03999996  16.21999931  49.25000000
H     5.88000011  16.72999954  48.76999664
H     6.85999966  17.72999954  44.59999847
H    15.13000011  16.36000061  44.45999908
H     3.96000004  17.60000038  47.02999878
H     4.76000023  18.63000107  45.86000061
S    15.76000023  15.36000061  49.20000076
C    18.40999985  14.85000038  48.47999954
C    17.15999985  15.34999943  48.15000153
C    16.73999977  15.60999966  46.79000092
C    17.73999977  15.62000084  45.75000000
C    19.03000069  15.21000004  46.11000061
C    20.07999802  15.11999989  45.12000275
C    21.34000015  14.65999985  45.43000031
C    21.67000008  14.27000046  46.77999878
C    20.65000153  14.32000065  47.74000168
C    19.32999992  14.82999992  47.45999908
C    15.32999992  15.86999989  46.62000275
C    14.65999985  15.65999985  47.83000183
C    13.30999947  15.76000023  47.95000076
C    23.05999947  14.00000000  47.11000061
H    23.29291725  14.50222588  48.04894638
H    18.73999977  14.47000027  49.43999863
H    17.60000038  15.81999969  44.68999863
H    19.78000069  15.44999981  44.12000275
H    22.09000015  14.61999989  44.64000320
H    20.89999962  13.99000072  48.74000168
H    12.86999893  15.76000023  48.94000244
H    23.69999886  14.32999992  46.27999878
H    23.13999939  12.93000031  47.29999924
S    11.90999985  17.12000084  50.94999695
C     9.19999981  17.34000015  51.58000183
C    10.44000053  16.87000084  51.86000061
C    10.85999966  16.39999962  53.18000031
C     9.89999962  16.32999992  54.10999680
C     8.61999989  16.90999985  53.93000031
C     7.59999990  16.90000153  54.86999893
C     6.25999975  17.30999947  54.58000183
C     5.96000004  17.88999939  53.31999969
C     6.97000027  17.94000053  52.35000229
C     8.28999996  17.43000031  52.64999771
C    12.28000069  16.15999985  53.40000153
C    13.01000023  16.45000076  52.25999832
C    14.44000053  16.46000099  52.18000031
C     4.51999998  18.07999992  52.97999954
H     4.16623068  17.28048134  52.32906342
H     8.96000004  17.70000076  50.59000015
H    10.00000000  15.62999916  54.93999863
H     7.82000017  16.44000053  55.83000183
H     5.47999954  17.02000046  55.27000046
H     6.69000053  18.35000038  51.38000107
H    14.98000050  16.86000061  51.31999969
H     3.96000004  18.15000153  53.93000031
H     4.48999977  19.06999969  52.51999664
S    15.47000027  15.27999973  55.75000000
C    18.20000076  14.92000008  55.04000092
C    16.94000053  15.42000008  54.75999832
C    16.60000038  15.85000038  53.41999817
C    17.67000008  15.92000008  52.50999832
C    18.97999954  15.55999947  52.83000183
C    20.03999901  15.72999954  51.88999939
C    21.28999901  15.36000061  52.21000290
C    21.55999947  14.80999947  53.55999756
C    20.58000183  14.72000027  54.43999863
C    19.29000092  15.13000011  54.13999939
C    15.11999989  16.02000046  53.27999878
C    14.39000034  15.78999996  54.48999786
C    13.04999924  15.80000019  54.52000046
C    22.98000145  14.47000027  53.95000076
H    23.16977310  14.79845619  54.97186279
H    18.40999985  14.37999916  55.96000290
H    17.48999977  16.40999985  51.55000305
H    19.82999992  15.90000057  50.84000015
H    22.04999924  15.36000061  51.44000244
H    20.55999947  14.47000027  55.50000000
H    12.51999950  15.27999973  55.31000137
H    23.71999931  14.88000011  53.25000000
H    23.08000183  13.38000107  54.01000214
