96

S    12.35999966  17.11000061  44.16999817
C     9.71000004  17.32999992  44.81999969
C    10.95999908  16.79999924  45.11000061
C    11.18000031  16.36000061  46.44000244
C    10.11999989  16.28999901  47.35000229
C     8.84000015  16.82999992  47.06999969
C     7.76000023  16.88999939  48.02999878
C     6.52999973  17.35000038  47.62000275
C     6.32000017  17.88999939  46.31999969
C     7.39000034  17.86000061  45.40000153
C     8.65999985  17.31999969  45.76000214
C    12.58999920  16.10999870  46.65999985
C    13.34000015  16.51000023  45.52999878
C    14.67000008  16.50000000  45.47999954
C     4.97000027  18.36000061  45.86999893
H     4.62818432  17.68349075  45.08667374
H     9.43000031  18.02000046  44.02999878
H    10.34999943  15.92000008  48.34000015
H     7.92000008  16.68000031  49.08000183
H     5.71000004  17.32999992  48.34999847
H     7.20000029  18.20000076  44.38999939
H    15.03999901  16.54999924  44.45000076
H     4.23999977  18.39999962  46.68000031
H     5.09000015  19.42000008  45.59999847
S    15.72999954  15.32999992  49.13000107
C    18.40999985  15.00000000  48.36999893
C    17.20999908  15.42000008  48.06999969
C    16.86000061  15.90999985  46.75000000
C    17.86000061  15.90999985  45.79000092
C    19.13999939  15.42000008  46.09000397
C    20.17000008  15.42000008  45.08999634
C    21.40999985  14.96000099  45.35999680
C    21.70000076  14.34000015  46.58000183
C    20.76000023  14.47999954  47.63000107
C    19.40999985  14.88999939  47.38999939
C    15.44000053  16.18000031  46.63000107
C    14.65000057  15.75000000  47.81999969
C    13.22000027  15.69000053  47.88000107
C    23.09000015  14.04999924  46.93999863
H    23.45084381  14.65371799  47.77271271
H    18.65999985  14.52999973  49.31999969
H    17.56999969  16.17000008  44.78000259
H    19.90999985  15.67000008  44.06000137
H    22.20000076  14.96000099  44.59999847
H    21.02999878  14.27000046  48.66000366
H    12.79000092  15.36000061  48.81000137
H    23.78999901  14.22999954  46.11999893
H    22.95999908  12.97000027  47.05999756
S    16.51000023  12.79000092  52.39999771
C    19.05999947  11.98999977  51.63000107
C    17.73999977  12.22000027  51.20999908
C    17.25000000  11.92999935  49.93000031
C    18.12000084  11.44000053  48.95999908
C    19.54000092  11.31000042  49.22000122
C    20.53999901  10.85000038  48.23999786
C    21.83000183  10.67999935  48.70999908
C    22.27000046  11.07999992  49.98000336
C    21.28999901  11.46000004  50.86000061
C    19.93999863  11.57999992  50.59999847
C    15.80999947  12.05999947  49.91000366
C    15.29999924  12.60000038  51.11999893
C    13.90999985  13.02000046  51.14999771
C    23.71000099  10.82999992  50.35999680
H    23.90227890  11.06500721  51.40684891
H    19.36000061  12.30000019  52.62000275
H    17.78000069  11.11999989  47.97999954
H    20.15000153  10.62000084  47.25000000
H    22.47999954  10.22999954  47.97000122
H    21.59000015  11.80999947  51.84999847
H    13.60000038  13.53000069  52.04999924
H    24.07999992   9.80000019  50.34000015
H    24.41999817  11.38000011  49.72999954
S    12.35999966  12.05999947  47.51999664
C     9.73999977  12.63000011  48.36000061
C    11.11999989  12.61000061  48.60000229
C    11.65999985  13.07000065  49.86999893
C    10.80000019  13.59000015  50.79999924
C     9.40999985  13.71999931  50.54999924
C     8.48999977  14.28999996  51.50000000
C     7.13999987  14.42000008  51.19999695
C     6.65999985  14.04999924  49.91000366
C     7.50999975  13.40999985  49.02000046
C     8.86999989  13.17999935  49.31999969
C    13.09000015  12.88000011  50.01999664
C    13.60999966  12.30000019  48.87000275
C    14.94999981  11.87999916  48.77999878
C     5.13000011  14.32999992  49.52000046
H     4.78531933  13.87042522  48.59366989
H     9.22000027  12.41000080  47.43000031
H    11.26999950  14.14000034  51.60999680
H     8.89000034  14.63999939  52.45999908
H     6.51000023  14.96000099  51.88999939
H     7.17999983  13.09000015  48.02999878
H    15.38000011  11.50000000  47.85999680
H     4.94999981  15.40999985  49.48999786
H     4.55000019  13.88000011  50.33000183
