96

S    11.97000027  16.69999886  44.06999969
C     9.32999992  17.23999977  44.85000229
C    10.57000065  16.79999924  45.19000244
C    10.92000008  16.47999954  46.53999710
C     9.90999985  16.43000031  47.51999664
C     8.59000015  16.90000153  47.18999863
C     7.60999966  17.07999992  48.18999863
C     6.37000036  17.50000000  47.91999817
C     6.01000023  17.76000023  46.49000168
C     7.02000046  17.71000099  45.56000137
C     8.30999947  17.15999985  45.80999756
C    12.35000038  16.39000130  46.66999817
C    13.07000065  16.47999954  45.43000031
C    14.45000076  16.42000008  45.31000137
C     4.65999985  18.22999954  46.07999802
H     4.23888922  17.55194092  45.33770370
H     9.06999969  17.70000076  43.89999771
H    10.13000011  16.28000069  48.56999969
H     7.94000053  16.81999969  49.19000244
H     5.65000010  17.61999893  48.72000122
H     6.76999998  18.11000061  44.58000183
H    14.85000038  16.54000092  44.31000137
H     3.91000009  18.22999954  46.88000107
H     4.74000025  19.25000000  45.68000031
S    15.60999966  15.67999935  49.02999878
C    18.26000023  15.26000023  48.43000031
C    16.98999977  15.72999954  48.00000000
C    16.65999985  16.00000000  46.65000153
C    17.61000061  15.88000107  45.65999985
C    18.93000031  15.62999916  46.02000427
C    20.00000000  15.67000008  45.05000305
C    21.22999954  15.21999931  45.45999908
C    21.53000069  14.80000019  46.76000214
C    20.53999901  14.92000008  47.80000305
C    19.23999977  15.29000092  47.38999939
C    15.21999931  16.20000076  46.45999908
C    14.48999977  16.01000023  47.63999939
C    13.12999916  16.00000000  47.75000000
C    22.95999908  14.32999992  47.04999924
H    23.38030052  14.86054325  47.90438080
H    18.40999985  14.85999966  49.43000031
H    17.38000107  16.00000000  44.61000061
H    19.68000031  15.90999985  44.03999710
H    21.91999817  14.96000099  44.66999817
H    20.71000099  14.86999989  48.87000275
H    12.72999954  15.52999973  48.63999939
H    23.47999954  14.52000046  46.11000061
H    23.03999901  13.26000023  47.28000259
S    12.05999947  17.17000008  50.75000000
C     9.48999977  17.78000069  51.55000305
C    10.71000004  17.21999931  51.84000015
C    10.98000050  16.61999893  53.08000183
C     9.96000004  16.54999924  54.02999878
C     8.69000053  17.05999947  53.83999634
C     7.68000031  16.77999878  54.80999756
C     6.42000008  17.28000069  54.52999878
C     6.12999964  18.02999878  53.33000183
C     7.09000015  18.20000076  52.36999893
C     8.40999985  17.71000099  52.51999664
C    12.42000008  16.32999992  53.22999954
C    13.09999943  16.51000023  52.02999878
C    14.47999954  16.40999985  52.00000000
C     4.71000004  18.36000061  52.95000076
H     4.34709883  17.79471207  52.09159851
H     9.38000011  18.27999878  50.59000015
H    10.06000042  15.98000050  54.94999695
H     7.96000004  16.35000038  55.77000046
H     5.60999966  17.10000038  55.22999573
H     6.85999966  18.68999863  51.42000198
H    15.03000069  16.77999878  51.13999939
H     4.09000015  18.12999916  53.82999802
H     4.59999990  19.43000031  52.76000214
S    15.55999947  15.40999985  55.77000046
C    18.18000031  15.22999954  55.00000000
C    16.92000008  15.57000065  54.72000122
C    16.53000069  15.93000031  53.40000153
C    17.46999931  16.01000023  52.43999863
C    18.81999969  15.69000053  52.70000076
C    19.85000038  15.80999947  51.66999817
C    21.14999962  15.27999973  51.90000153
C    21.44000053  14.60000038  53.11000061
C    20.45000076  14.53999996  54.09000015
C    19.12999916  15.15999985  53.95999908
C    15.11999989  16.10999870  53.20000076
C    14.44000053  15.80999947  54.40000153
C    13.07000065  16.00000000  54.41999817
C    22.85000038  14.45000076  53.54000092
H    22.97813988  14.93408394  54.50816727
H    18.38999939  14.78000069  55.97000122
H    17.18000031  16.11999893  51.39999771
H    19.64999962  16.17000008  50.66999817
H    21.83000183  15.65999985  51.14999771
H    20.73999786  14.14000034  55.06000137
H    12.46000099  16.06999969  55.31999969
H    23.48999977  14.86999989  52.75000000
H    23.15000153  13.38999939  53.61000061
