96

S    12.44999981  16.35000038  44.20999908
C     9.73999977  16.79000092  45.02999878
C    11.00999928  16.28999901  45.28999710
C    11.35000038  15.92000008  46.62000275
C    10.43000031  16.01000023  47.69000244
C     9.22000027  16.55999947  47.45999908
C     8.18000031  16.65999985  48.43000031
C     6.89000034  16.81999969  48.11999893
C     6.57000017  17.22999954  46.86999893
C     7.57000017  17.43000031  45.93000031
C     8.85999966  16.95000076  46.11000061
C    12.81000042  15.62999916  46.73999786
C    13.45999908  15.78999996  45.48999786
C    14.82999992  15.78999996  45.40999985
C     5.17000008  17.40999985  46.46999741
H     4.86934090  16.80868149  45.61202240
H     9.55000019  17.26000023  44.06000137
H    10.71000004  15.65999985  48.68000031
H     8.39999962  16.31999969  49.43999863
H     6.21000004  16.57999992  48.93000031
H     7.22000027  17.75000000  44.93999863
H    15.31999969  16.04999924  44.47999954
H     4.53000021  17.19000053  47.34000397
H     4.94999981  18.45999908  46.23000336
S    16.05999947  14.92000008  49.08000183
C    18.75000000  14.65999985  48.36999893
C    17.46999931  15.01000023  48.04000092
C    17.04000092  15.44999981  46.72000122
C    17.95999908  15.62999916  45.79999924
C    19.29999924  15.34000015  46.05999756
C    20.29999924  15.31999969  45.02999878
C    21.55999947  14.82999992  45.26000214
C    21.93000031  14.52000046  46.63000107
C    21.05999947  14.60000038  47.63999939
C    19.68000031  14.85000038  47.34000397
C    15.57000065  15.54999924  46.56000137
C    14.93999958  15.34000015  47.81000137
C    13.53999996  15.40999985  47.93000031
C    23.36999893  14.42000008  46.91999817
H    23.63524628  14.56658363  47.96702194
H    19.01000023  14.29999924  49.36999893
H    17.73999977  15.93999958  44.78000259
H    19.96000099  15.43000031  44.01000214
H    22.26000023  14.60000038  44.47000122
H    21.31000137  14.45000076  48.68000031
H    13.07000065  15.36000061  48.90999603
H    23.95999908  15.06999969  46.25000000
H    23.80000114  13.43999958  46.65999985
S    16.13999939  12.50000000  52.25999832
C    18.82999992  12.01000023  51.45999908
C    17.46000099  11.96000004  51.23000336
C    16.95000076  11.51000023  49.97000122
C    17.81999969  11.02000046  48.99000168
C    19.22000122  11.10999966  49.20000076
C    20.15999985  10.65999985  48.27999878
C    21.54000092  10.67000008  48.50000000
C    22.01000023  11.09000015  49.77000427
C    21.07999992  11.61000061  50.72000122
C    19.70999908  11.59999943  50.43000031
C    15.57999992  11.71000004  49.82999802
C    14.98999977  12.30000019  50.98999786
C    13.66000080  12.81000042  50.97999954
C    23.52999878  10.98999977  50.14999771
H    23.64991379  11.22277737  51.20808029
H    19.25000000  12.43000031  52.37999725
H    17.43000031  10.36999893  48.20999908
H    19.96000099  10.15999985  47.34000397
H    22.26000023  10.34000015  47.75000000
H    21.40000153  12.05000019  51.65999985
H    13.25000000  13.35999966  51.81999969
H    23.95999908  10.00000000  49.89999771
H    24.11999893  11.72999954  49.59000015
S    12.20000076  11.64999962  47.48000336
C     9.59000015  12.23000050  48.29999924
C    10.95000076  12.18999958  48.57999802
C    11.50000000  12.86000061  49.72000122
C    10.69000053  13.34000015  50.68999863
C     9.30000019  13.30999947  50.54000092
C     8.45000076  13.73999977  51.56000137
C     7.09000015  13.85000038  51.33999634
C     6.53999996  13.50999928  50.06000137
C     7.31999969  12.94000053  49.10999680
C     8.73000050  12.76999950  49.31999969
C    12.88000011  12.58999920  49.86000061
C    13.43999958  12.01000023  48.68999863
C    14.77000046  11.52999973  48.68999863
C     5.10999966  13.71000099  49.68999863
H     4.87751818  13.36480045  48.68258286
H     9.18000031  12.15000057  47.29000092
H    11.13000011  13.55999947  51.65999985
H     8.96000004  14.22000027  52.39999771
H     6.43000031  14.40000057  52.00000000
H     6.94000006  12.75000000  48.11000061
H    15.10000038  10.98999977  47.81000137
H     4.85000038  14.78000069  49.69999695
H     4.39000034  13.26000023  50.38000107
