96

S    11.97999954  16.77000046  44.15000153
C     9.43000031  17.36999893  44.93999863
C    10.59000015  16.77999878  45.20000076
C    10.95999908  16.18999863  46.44000244
C     9.98999977  16.00000000  47.37999725
C     8.67000008  16.46999931  47.05999756
C     7.59999990  16.20000076  47.90000153
C     6.40999985  16.72999954  47.64999771
C     6.09000015  17.47999954  46.52000046
C     7.09999990  17.82999992  45.68000031
C     8.36999989  17.27000046  45.89000320
C    12.41000080  16.05999947  46.58000183
C    13.10999966  16.39999962  45.44000244
C    14.52000046  16.50000000  45.43000031
C     4.63999987  17.86000061  46.22000122
H     4.14870358  17.09813499  45.61478043
H     9.22000027  17.80999947  43.96999741
H    10.25000000  15.62000084  48.36000061
H     7.73000002  15.62999916  48.81999969
H     5.65000010  16.47999954  48.39000320
H     6.84999990  18.45000076  44.82999802
H    15.14999962  16.65999985  44.55999756
H     4.17000008  17.97000122  47.21000290
H     4.67000008  18.81999969  45.68999863
S    15.60999966  15.39000034  49.02000046
C    18.31999969  15.32999992  48.31999969
C    16.98999977  15.54999924  47.95000076
C    16.62999916  15.97000027  46.66999817
C    17.61000061  16.18999863  45.75000000
C    18.98999977  15.95999908  46.11999893
C    20.03999901  16.03000069  45.22999573
C    21.35000038  15.62999916  45.54000092
C    21.63999939  15.17000008  46.84000015
C    20.59999847  15.00000000  47.78999710
C    19.32999992  15.48999977  47.45999908
C    15.29000092  16.13000107  46.52999878
C    14.51000023  15.85000038  47.70000076
C    13.14000034  15.77000046  47.70000076
C    23.02999878  14.65999985  47.11000061
H    23.36308670  15.07635784  48.06068420
H    18.45000076  14.94999981  49.33000183
H    17.38000107  16.48999977  44.72999954
H    19.85999870  16.22999954  44.18000031
H    22.06999969  15.44000053  44.75000000
H    20.71000099  14.42999935  48.70999908
H    12.69999981  15.62999916  48.68000031
H    23.71000099  15.01999950  46.33999634
H    23.12999916  13.56999969  47.18999863
S    15.93999958  12.74000072  52.09999847
C    18.53000069  12.25999928  51.20999908
C    17.18000031  12.22000027  50.93000031
C    16.67000008  11.90999985  49.62999725
C    17.61999893  11.47999954  48.68000031
C    19.02000046  11.44000053  48.94000244
C    20.00999832  11.03999996  48.02999878
C    21.38999939  11.05999947  48.25000000
C    21.87000084  11.64999962  49.47999954
C    20.86999893  12.06999969  50.43000031
C    19.47999954  11.98999977  50.15999603
C    15.25000000  12.05999947  49.61000061
C    14.80000019  12.65999985  50.81999969
C    13.40000057  12.93000031  51.02000427
C    23.29999924  11.49000072  49.93999863
H    23.53853989  11.85526562  50.93888855
H    18.97999954  12.53999901  52.15999985
H    17.30999947  11.36000061  47.64999771
H    19.63000107  10.67000008  47.08000183
H    22.09000015  10.55999947  47.60000229
H    21.18000031  12.28999996  51.45000076
H    13.07000065  13.31999969  51.97000122
H    23.48999977  10.40999985  49.86999893
H    23.88000107  11.95000076  49.12000275
S    11.68000031  11.84999943  47.56000137
C     9.06999969  12.48999977  48.34000015
C    10.48999977  12.50000000  48.63999939
C    11.06999969  12.98999977  49.86000061
C    10.25000000  13.56999969  50.79000092
C     8.80999947  13.59000015  50.63000107
C     7.92000008  14.06999969  51.63000107
C     6.61999989  14.32000065  51.30000305
C     6.05000019  13.89999962  50.07999802
C     6.93000031  13.30000019  49.15999985
C     8.31999969  13.09999943  49.36999893
C    12.48999977  12.76000023  49.92000198
C    13.01000023  12.22000027  48.66000366
C    14.32999992  11.82000065  48.56999969
C     4.61999989  14.09999943  49.85000229
H     4.33798265  13.81075096  48.83762741
H     8.67999935  12.23999977  47.35000229
H    10.76000023  13.88000011  51.69000244
H     8.36000061  14.42000008  52.56000137
H     6.00000000  14.75999928  52.09000015
H     6.54999971  12.93000031  48.20999908
H    14.63999939  11.38000011  47.63000107
H     4.44999981  15.15999985  50.06000137
H     3.94000006  13.68000031  50.59999847
