96

S    12.35000038  16.70999908  44.52999878
C     9.68000031  16.87000084  45.13000107
C    10.95999908  16.35000038  45.41999817
C    11.23999977  15.81999969  46.68000031
C    10.21000004  15.52000046  47.57999802
C     8.93000031  15.97000027  47.28000259
C     7.92000008  16.04999924  48.31999969
C     6.65000010  16.52000046  48.11000061
C     6.32000017  17.02000046  46.84999847
C     7.27999973  17.13999939  45.87999725
C     8.59000015  16.67000008  46.09000397
C    12.69000053  15.80000019  46.93000031
C    13.38999939  16.29999924  45.86999893
C    14.78000069  16.36999893  45.79000092
C     4.86999989  17.45000076  46.55000305
H     4.43612623  16.95314407  45.68225479
H     9.44999981  17.45000076  44.23999786
H    10.46000004  15.29000092  48.61000061
H     8.14999962  15.67000008  49.31000137
H     5.91000032  16.50000000  48.89999771
H     7.18999958  17.71999931  44.95999908
H    15.19999981  16.72000122  44.86000061
H     4.33999968  17.31999969  47.50000000
H     4.81999969  18.52000046  46.31000137
S    15.97000027  14.75000000  49.19000244
C    18.59000015  14.59000015  48.26000214
C    17.30999947  15.01999950  48.09999847
C    16.95000076  15.65999985  46.90000153
C    17.86999893  15.77999973  45.87999725
C    19.18000031  15.29000092  46.05999756
C    20.13999939  15.47000027  45.06999969
C    21.47000122  15.14999962  45.25000000
C    21.86000061  14.53999996  46.45999908
C    20.92000008  14.27999973  47.45999908
C    19.59000015  14.73000050  47.31999969
C    15.55999947  15.88999939  46.84000015
C    14.88000011  15.39000034  47.91999817
C    13.45000076  15.40999985  48.02000046
C    23.29999924  14.29999924  46.84999847
H    23.56025505  14.72653008  47.81872940
H    18.75000000  14.00000000  49.15999985
H    17.56999969  16.21000099  44.93000031
H    19.88000107  16.13000107  44.25000000
H    22.15999985  15.57000065  44.52000046
H    21.25000000  13.78999901  48.36999893
H    12.98999977  14.91000080  48.87000275
H    23.85000038  14.75000000  46.02000427
H    23.57999992  13.23999977  46.81999969
S    15.98000050  12.53000069  52.15000153
C    18.60000038  12.11999989  51.40999603
C    17.28999901  11.98999977  51.11000061
C    16.77000046  11.35000038  49.93999863
C    17.71999931  10.82999992  49.01000214
C    19.09000015  11.00999928  49.31999969
C    20.12000084  10.60999966  48.43000031
C    21.44000053  10.59000015  48.81000137
C    21.90999985  11.02000046  50.01999664
C    20.97999954  11.56000042  50.89000320
C    19.59000015  11.59999943  50.52000046
C    15.34000015  11.56999969  49.82999802
C    14.80000019  12.13000107  50.97999954
C    13.45000076  12.57999992  51.06999969
C    23.31000137  10.78999996  50.40000153
H    23.64401245  11.13143635  51.37977600
H    18.89999962  12.60000038  52.34000397
H    17.38999939  10.59000015  48.00000000
H    19.78000069  10.34000015  47.43999863
H    22.06999969  10.01999950  48.13000107
H    21.35999870  11.85999966  51.86000061
H    13.05999947  13.12999916  51.91999817
H    23.71000099   9.80000019  50.14999771
H    23.90000153  11.39999962  49.71000290
S    12.00000000  11.56999969  47.50999832
C     9.32999992  12.06999969  48.23999786
C    10.65999985  12.15000057  48.52000427
C    11.11999989  12.46000099  49.85000229
C    10.19000053  12.92000008  50.75000000
C     8.84000015  12.92000008  50.45999908
C     8.00000000  13.52000046  51.42000198
C     6.63999987  13.59000015  51.13999939
C     6.10000038  13.09999943  49.91000366
C     6.96000004  12.67000008  48.88999939
C     8.36000061  12.46999931  49.20999908
C    12.53999901  12.25000000  50.04000092
C    13.19000053  11.71000004  48.90999603
C    14.50000000  11.32999992  48.74000168
C     4.78999996  13.50000000  49.47999954
H     4.46947336  13.05126190  48.53978729
H     9.07999992  11.65999985  47.25999832
H    10.52000046  13.17999935  51.75000000
H     8.53999996  13.89999962  52.28000259
H     6.09000015  14.32000065  51.72999954
H     6.63000011  12.53000069  47.85999680
H    14.96999931  10.92000008  47.84999847
H     4.77999973  14.60000038  49.51000214
H     4.01999998  13.07999992  50.13000107
