96

S    12.38000011  16.70999908  43.88000107
C     9.73999977  17.20000076  44.81999969
C    10.98999977  16.76000023  45.04000092
C    11.30000019  16.26000023  46.38000107
C    10.24000072  16.10000038  47.29000092
C     8.93999958  16.55999947  47.04000092
C     7.86999989  16.43000031  48.01000214
C     6.65000010  16.90999985  47.70000076
C     6.37000036  17.43999863  46.39999771
C     7.35000038  17.65999985  45.51000214
C     8.69999981  17.20000076  45.76000214
C    12.79999924  16.13000107  46.52000046
C    13.47000027  16.26000023  45.27999878
C    14.88999939  16.11999893  45.22999573
C     5.00999975  17.86999893  46.06999969
H     4.69621372  17.36366272  45.15716934
H     9.53999996  17.61999893  43.83999634
H    10.31000042  15.65999985  48.27999878
H     8.10000038  15.88999939  48.93000031
H     5.86000013  16.82999992  48.43999863
H     7.00999975  17.89999962  44.51000214
H    15.34999943  16.46000099  44.29999924
H     4.39000034  17.50000000  46.90000153
H     4.82999992  18.95000076  46.04999924
S    15.90000057  15.22999954  48.94000244
C    18.54999924  14.73000050  48.20999908
C    17.30999947  15.19999981  47.84999847
C    16.98999977  15.60999966  46.52000046
C    18.02000046  15.59000015  45.58000183
C    19.27000046  15.03999901  45.86000061
C    20.38999939  15.00000000  44.98000336
C    21.59000015  14.42999935  45.41999817
C    21.76000214  13.99000072  46.70000076
C    20.71000099  14.01999950  47.61000061
C    19.50000000  14.60000038  47.21000290
C    15.60999966  15.82999992  46.33999634
C    14.86999989  15.67999935  47.54000092
C    13.47000027  15.72000027  47.67000198
C    23.13999939  13.73000050  47.21000290
H    23.23903847  14.04126549  48.24990845
H    18.76000023  14.39000034  49.22999954
H    17.92000008  15.77999973  44.51000214
H    20.25000000  15.31999969  43.95000076
H    22.46000099  14.32000065  44.78000259
H    20.84000015  13.68000031  48.62999725
H    12.94999981  15.48999977  48.60000229
H    23.75000000  14.34999943  46.53999710
H    23.36999893  12.67000008  47.02000046
S    15.88000107  12.67000008  52.18999863
C    18.47999954  11.89000034  51.55000305
C    17.17000008  12.02000046  51.18999863
C    16.73999977  11.79999924  49.80999756
C    17.67000008  11.39000034  48.88999939
C    18.98999977  11.19999981  49.25000000
C    19.97999954  10.60999966  48.36000061
C    21.28000069  10.36999893  48.75000000
C    21.71999931  10.92000008  50.02999878
C    20.84000015  11.51999950  50.84999847
C    19.42000008  11.59000015  50.52000046
C    15.27999973  11.98999977  49.73999786
C    14.75000000  12.57999992  50.90000153
C    13.45000076  12.97000027  50.97000122
C    23.15000153  10.70000076  50.40999985
H    23.42420197  11.12983036  51.37340927
H    18.95000076  12.25000000  52.45999908
H    17.34000015  11.11999989  47.88999939
H    19.69000053  10.29999924  47.36000061
H    21.93000031   9.96000004  47.97999954
H    21.11999893  11.69000053  51.88999939
H    13.02999973  13.36999989  51.88999939
H    23.35000038   9.61999989  50.47000122
H    23.74000168  11.03000069  49.54999924
S    11.87000084  11.84000015  47.43000031
C     9.26000023  12.35000038  48.34999847
C    10.57999992  12.38000011  48.64999771
C    11.11999989  12.98999977  49.82999802
C    10.26999950  13.57999992  50.80999756
C     8.84000015  13.43999958  50.61999893
C     7.88999987  13.94000053  51.56999969
C     6.63999987  14.07999992  51.23000336
C     6.12999964  13.63999939  50.00000000
C     6.97000027  13.07000065  49.09999847
C     8.36000061  12.94000053  49.34999847
C    12.56000042  12.76999950  49.86999893
C    13.07000065  12.05999947  48.72000122
C    14.46000004  11.64999962  48.67000198
C     4.65999985  14.02999973  49.65999985
H     4.42586851  13.71538639  48.64299393
H     8.90999985  11.96000004  47.39999771
H    10.64000034  13.88000011  51.79000092
H     8.27000046  14.59000015  52.36000061
H     5.98000002  14.72000027  51.81000137
H     6.65999985  12.76999950  48.09999847
H    14.73999977  11.19999981  47.71999741
H     4.48000002  15.10000038  49.73999786
H     3.98999977  13.57999992  50.40000153
