96

S    12.03999996  16.88999939  44.69999695
C     9.43000031  17.13999939  45.28999710
C    10.65000057  16.63999939  45.68000031
C    10.98000050  16.22999954  46.95000076
C     9.96000004  16.10000038  47.88000107
C     8.60999966  16.52000046  47.57999802
C     7.55000019  16.32999992  48.41999817
C     6.30000019  16.90999985  48.20999908
C     6.14000034  17.71000099  47.08000183
C     7.16000032  17.71999931  46.10000229
C     8.38000011  17.04000092  46.25000000
C    12.38000011  16.07999992  47.18000031
C    13.07999992  16.53000069  46.04000092
C    14.42999935  16.48999977  46.04000092
C     4.71000004  18.02999878  46.58000183
H     4.36415720  17.27479172  45.87419891
H     9.34000015  17.64999962  44.34000015
H    10.24000072  15.72000027  48.86000061
H     7.69999981  15.76000023  49.33000183
H     5.42999983  16.64999962  48.81000137
H     6.98999977  18.27999878  45.18000031
H    15.03999901  16.63999939  45.14999771
H     4.02999973  17.97999954  47.43999863
H     4.65999985  19.03000069  46.14999771
S    15.71000004  15.21999931  49.47999954
C    18.32999992  14.88000011  48.61000061
C    17.05999947  15.29999924  48.34000015
C    16.64999962  15.93999958  47.15000153
C    17.67000008  16.18000031  46.14999771
C    18.94000053  15.60999966  46.35000229
C    19.97999954  15.57999992  45.40000153
C    21.27000046  15.14999962  45.58000183
C    21.63000107  14.56999969  46.81999969
C    20.68000031  14.52000046  47.80000305
C    19.37000084  15.06000042  47.65999603
C    15.21999931  16.07999992  47.05999756
C    14.53999996  15.77999973  48.29999924
C    13.12000084  15.76000023  48.40000153
C    23.01000214  14.09000015  47.18999863
H    23.27278328  14.58005428  48.12749100
H    18.45999908  14.48999977  49.61999893
H    17.36999893  16.68000031  45.24000168
H    19.71999931  16.03999901  44.45000076
H    22.00000000  15.24000072  44.78000259
H    20.93000031  13.92000008  48.68000031
H    12.63000011  15.57999992  49.34999847
H    23.71000099  14.28999996  46.37000275
H    23.02999878  13.02000046  47.44999695
S    11.72999954  17.05999947  51.24000168
C     9.02999973  17.32999992  51.79000092
C    10.31999969  17.00000000  52.16999817
C    10.57000065  16.63999939  53.47999954
C     9.52000046  16.57999992  54.45000076
C     8.19000053  16.97000122  54.02999878
C     7.00000000  16.81999969  54.88999939
C     5.78999996  17.14999962  54.43000031
C     5.65000010  17.79999924  53.22999954
C     6.72999954  17.90999985  52.37999725
C     8.01999950  17.43999863  52.70999908
C    12.05000019  16.52000046  53.73000336
C    12.82999992  16.77999878  52.61000061
C    14.19000053  16.61999893  52.50000000
C     4.32999992  18.27999878  52.74000168
H     3.96157217  17.65872955  51.92367935
H     8.80000019  17.75000000  50.81999969
H     9.67000008  16.21999931  55.45999908
H     7.16000032  16.38000107  55.86999893
H     4.92000008  16.88999939  55.01999664
H     6.48999977  18.34000015  51.40999603
H    14.73000050  16.69999886  51.56000137
H     3.63000011  18.12999916  53.56999969
H     4.28999996  19.34999847  52.50999832
S    15.17000008  15.46000004  56.16000366
C    17.85000038  14.91000080  55.37000275
C    16.61000061  15.46000004  55.13000107
C    16.28000069  15.90000057  53.83999634
C    17.28000069  15.95999908  52.84000015
C    18.63000107  15.51000023  53.08000183
C    19.76000023  15.52999973  52.16999817
C    20.96999931  15.06999969  52.54000092
C    21.28000069  14.65000057  53.88999939
C    20.22999954  14.60999966  54.75999832
C    18.89999962  14.98000050  54.38999939
C    14.85000038  16.15999985  53.62999725
C    14.11999893  15.92000008  54.79000092
C    12.77999973  16.17000008  54.91000366
C    22.73999977  14.42999935  54.20999908
H    23.04714584  14.75857639  55.20287323
H    17.98999977  14.44000053  56.35000229
H    17.05000114  16.20000076  51.79999924
H    19.59000015  15.85000038  51.14999771
H    21.83000183  15.07999992  51.88000107
H    20.34000015  14.46000004  55.83000183
H    12.35000038  15.98999977  55.89000320
H    23.26999855  15.01000023  53.43000031
H    23.02999878  13.38000107  54.09000015
