96

S    12.05999947  16.86000061  44.13000107
C     9.47000027  17.19000053  45.00999832
C    10.72000027  16.77999878  45.27999878
C    11.07999992  16.27000046  46.56999969
C    10.14000034  16.10000038  47.48000336
C     8.75000000  16.39999962  47.21000290
C     7.64999962  16.15999985  48.11000061
C     6.42000008  16.56999969  47.76000214
C     6.07999992  17.13999939  46.55000305
C     7.07999992  17.31999969  45.63999939
C     8.45000076  16.93000031  45.91999817
C    12.48999977  16.03999901  46.66999817
C    13.12000084  16.35000038  45.47000122
C    14.51000023  16.31000137  45.40000153
C     4.57999992  17.43000031  46.25000000
H     4.28964567  17.28836250  45.20897675
H     9.18000031  17.75000000  44.13000107
H    10.31999969  15.81999969  48.50999832
H     7.77999973  15.59000015  49.02999878
H     5.65999985  16.36000061  48.50999832
H     6.90999985  17.67000008  44.61999893
H    14.94999981  16.40999985  44.41999817
H     3.98000002  16.84000015  46.95999908
H     4.33999968  18.44000053  46.59999847
S    15.71000004  15.29999924  49.06000137
C    18.29000092  14.85000038  48.16999817
C    17.09000015  15.43000031  47.90999985
C    16.69000053  15.95999908  46.60999680
C    17.64999962  15.95999908  45.65000153
C    18.93000031  15.47000027  45.96000290
C    20.03999901  15.47000027  45.00000000
C    21.31999969  15.05000019  45.24000168
C    21.54000092  14.46000004  46.55000305
C    20.52000046  14.32999992  47.43999863
C    19.26000023  14.88999939  47.18000031
C    15.25000000  16.03000069  46.50000000
C    14.60000038  15.67000008  47.75000000
C    13.23999977  15.78999996  47.81000137
C    22.98000145  14.02999973  47.00000000
H    23.31459236  14.50907516  47.92012787
H    18.50000000  14.30999947  49.09999847
H    17.39999962  16.43000031  44.69999695
H    19.76000023  15.85999966  44.02000046
H    22.11999893  15.19999981  44.52000046
H    20.58000183  13.93000031  48.43999863
H    12.75000000  15.44999981  48.72000122
H    23.64999962  14.22999954  46.14999771
H    23.02000046  12.94000053  47.06999969
S    16.01000023  12.67000008  52.23999786
C    18.57999992  11.90999985  51.43000031
C    17.26000023  12.02999973  51.19999695
C    16.77999878  11.84000015  49.89999771
C    17.63000107  11.32999992  48.93000031
C    18.98999977  11.23000050  49.15000153
C    19.90999985  10.54999924  48.26000214
C    21.22999954  10.40999985  48.57999802
C    21.67000008  10.97000027  49.80999756
C    20.82999992  11.43000031  50.75000000
C    19.45000076  11.56000042  50.47999954
C    15.38000011  12.10000038  49.85000229
C    14.85999966  12.76999950  50.96000290
C    13.52000046  13.05999947  51.06999969
C    23.15000153  10.88000107  50.10000229
H    23.45410919  11.27604866  51.06890106
H    18.93000031  12.18000031  52.42000198
H    17.29999924  10.90000057  47.98999786
H    19.56999969  10.17000008  47.29999924
H    21.88999939   9.86999989  47.91999817
H    21.17000198  11.77000046  51.72999954
H    13.17000008  13.50999928  52.00000000
H    23.45000076   9.82999992  49.95999908
H    23.61000061  11.39999962  49.26000214
S    11.96000004  12.03999996  47.60000229
C     9.27999973  12.32999992  48.47999954
C    10.67999935  12.48999977  48.67000198
C    11.18000031  13.04999924  49.93000031
C    10.24000072  13.52000046  50.84999847
C     8.89999962  13.43999958  50.65000153
C     8.01000023  13.86999989  51.59999847
C     6.65000010  13.88000011  51.37000275
C     6.10000038  13.38000107  50.13999939
C     7.00999975  12.96000004  49.19000244
C     8.38999939  12.89999962  49.45000076
C    12.67000008  12.89999962  49.93999863
C    13.27000046  12.35999966  48.75999832
C    14.61999989  11.95000076  48.69999695
C     4.65999985  13.60999966  49.81999969
H     4.33608055  13.18530560  48.86983490
H     8.89999962  11.90999985  47.55000305
H    10.76000023  13.96000004  51.69000244
H     8.50000000  14.19000053  52.51999664
H     6.01999998  14.37000084  52.11000061
H     6.70000029  12.69000053  48.18999863
H    15.13000011  11.54000092  47.84000015
H     4.48000002  14.68999958  49.71000290
H     4.02999973  13.23999977  50.63999939
