96

S    12.02999973  16.56999969  44.27000046
C     9.32999992  16.84999847  45.11000061
C    10.62000084  16.40999985  45.31999969
C    10.98000050  16.03000069  46.63999939
C     9.96999931  16.00000000  47.62000275
C     8.63000011  16.55999947  47.41000366
C     7.68000031  16.69999886  48.40000153
C     6.48000002  17.25000000  48.18999863
C     6.05999994  17.48999977  46.88000107
C     6.97000027  17.35999870  45.81999969
C     8.30000019  16.88999939  46.07999802
C    12.41000080  15.85000038  46.76000214
C    13.14000034  16.07999992  45.56999969
C    14.52999973  16.06999969  45.56000137
C     4.59999990  17.70000076  46.59000015
H     4.30728960  16.97519302  45.83034515
H     9.11000061  17.07999992  44.06999969
H    10.26999950  15.75000000  48.63999939
H     7.92000008  16.26000023  49.36000061
H     5.88000011  17.56999969  49.03999710
H     6.71000004  17.42000008  44.77000427
H    14.98000050  16.32999992  44.59999847
H     4.00999975  17.43000031  47.47000122
H     4.42000008  18.72999954  46.25999832
S    15.57999992  15.36000061  49.26000214
C    18.22000122  14.85000038  48.52000427
C    16.95999908  15.36999893  48.16999817
C    16.61999893  15.86999989  46.90000153
C    17.64000130  15.95000076  45.98999786
C    18.90999985  15.31999969  46.23000336
C    20.00000000  15.40999985  45.25000000
C    21.28000069  15.05000019  45.51000214
C    21.48999977  14.32999992  46.73999786
C    20.48000145  14.15999985  47.70999908
C    19.13999939  14.70999908  47.48000336
C    15.21000004  15.95000076  46.73999786
C    14.51000023  15.73999977  47.93000031
C    13.14000034  15.62999916  47.95000076
C    22.89999962  13.89999962  47.15999985
H    23.29337883  14.54371071  47.94675827
H    18.51000023  14.44000053  49.47999954
H    17.43000031  16.31999969  44.99000168
H    19.78999901  15.98999977  44.34999847
H    22.09000015  15.29999924  44.84000397
H    20.62999916  13.78999901  48.72000122
H    12.63000011  15.47000027  48.88999939
H    23.57000160  13.85000038  46.29000092
H    22.82999992  12.89000034  47.57999802
S    15.95000076  12.76000023  52.32999802
C    18.48999977  12.02000046  51.44000244
C    17.18000031  12.18000031  51.13999939
C    16.63999939  11.94000053  49.85000229
C    17.40999985  11.54999924  48.82999802
C    18.78999901  11.36000061  49.05000305
C    19.68000031  10.80999947  48.09999847
C    20.98999977  10.57999992  48.40999985
C    21.54000092  10.86999989  49.68999863
C    20.72999954  11.42000008  50.63000107
C    19.36000061  11.64000034  50.40000153
C    15.22999954  12.05999947  49.79999924
C    14.70999908  12.71999931  50.97999954
C    13.38000107  13.21000004  51.14999771
C    23.05999947  10.57000065  49.88999939
H    23.41359711  11.03674984  50.80935287
H    18.94000053  12.23999977  52.39999771
H    16.95000076  11.38000011  47.85999680
H    19.30999947  10.44000053  47.14000320
H    21.70000076  10.11999989  47.71999741
H    21.00000000  11.64999962  51.65999985
H    13.02000046  13.55999947  52.11999893
H    23.16999817   9.48000050  49.81999969
H    23.65999985  10.90999985  49.03999710
S    11.82999992  12.18999958  47.60000229
C     9.39000034  12.81999969  48.40000153
C    10.69000053  12.79000092  48.73000336
C    11.17000008  13.20000076  49.93999863
C    10.26000023  13.55999947  50.90999985
C     8.90999985  13.75000000  50.58000183
C     7.94000053  14.34000015  51.45000076
C     6.63000011  14.52000046  51.16000366
C     6.15999985  13.93000031  49.99000168
C     7.02000046  13.34000015  49.10999680
C     8.40999985  13.25000000  49.36999893
C    12.58999920  13.03999996  50.05000305
C    13.09999943  12.39999962  48.82999802
C    14.42999935  11.92999935  48.73000336
C     4.71000004  14.26000023  49.54999924
H     4.46289873  13.77328491  48.60652161
H     9.00000000  12.55000019  47.43000031
H    10.47999954  13.57999992  51.97000122
H     8.30000019  14.55000019  52.45999908
H     5.95000029  15.05000019  51.81999969
H     6.65000010  13.00000000  48.15000153
H    14.80000019  11.63000011  47.76000214
H     4.67000008  15.34999943  49.43000031
H     4.17000008  13.99000072  50.45999908
