96

S    12.34000015  16.43000031  44.02999878
C     9.63999939  16.32999992  44.65999985
C    10.93000031  16.04999924  45.00000000
C    11.26999950  15.67999935  46.38000107
C    10.21999931  15.64000034  47.29000092
C     8.85999966  15.95999908  46.95999908
C     7.92999983  16.44000053  47.94000244
C     6.84000015  17.11000061  47.64999771
C     6.47000027  17.18000031  46.27999878
C     7.30999994  16.79000092  45.31000137
C     8.61999989  16.31999969  45.61999893
C    12.65999985  15.85999966  46.65000153
C    13.40000057  16.21000099  45.47999954
C    14.78000069  16.22999954  45.52999878
C     5.09999990  17.61999893  45.90000153
H     4.76973867  17.04379845  45.03569794
H     9.36999989  16.72999954  43.68000031
H    10.53999996  15.65000057  48.33000183
H     8.23999977  16.35000038  48.97999573
H     6.15000010  17.45000076  48.41999817
H     7.05999947  17.00000000  44.27999878
H    15.26000023  16.42000008  44.58000183
H     4.44000006  17.46999931  46.77000046
H     4.94000006  18.68999863  45.72000122
S    15.86999989  15.32999992  49.20000076
C    18.48999977  14.93000031  48.47999954
C    17.26000023  15.39999962  48.09999847
C    16.94000053  15.90999985  46.84000015
C    17.94999886  15.98999977  45.87999725
C    19.27000046  15.62000084  46.14999771
C    20.36999893  15.78999996  45.22999573
C    21.63999939  15.32999992  45.59999847
C    21.87999916  14.73999977  46.84000015
C    20.78000069  14.52999973  47.74000168
C    19.51000023  15.03000069  47.48000336
C    15.52999973  15.85999966  46.66999817
C    14.80000019  15.54999924  47.81999969
C    13.40000057  15.60999966  47.78999710
C    23.23999786  14.27999973  47.35000229
H    23.59274101  14.78391838  48.24985504
H    18.53999901  14.52999973  49.48999786
H    17.60000038  16.18000031  44.86000061
H    20.17999840  16.34000015  44.31999969
H    22.55000114  15.54999924  45.04000092
H    20.88000107  13.96000004  48.66000366
H    12.89000034  15.40999985  48.73000336
H    24.03000069  14.42999935  46.59999847
H    23.15999985  13.20000076  47.49000168
S    15.90000057  12.71000004  52.32999802
C    18.48999977  11.98999977  51.52000046
C    17.13999939  12.02999973  51.26999664
C    16.61999893  11.76000023  49.93999863
C    17.45000076  11.30000019  48.93000031
C    18.86000061  11.17000008  49.19000244
C    19.84000015  11.10999966  48.15000153
C    21.18999863  11.02000046  48.47000122
C    21.68999863  11.19999981  49.79999924
C    20.78000069  11.64000034  50.72000122
C    19.37000084  11.59999943  50.52000046
C    15.18000031  12.02999973  49.86999893
C    14.60999966  12.61000061  51.06999969
C    13.25000000  12.92000008  51.22000122
C    23.15999985  10.90999985  49.97000122
H    23.41236115  11.33307457  50.94232941
H    18.81000137  12.69999981  52.28000259
H    17.06999969  11.03999996  47.94000244
H    19.52000046  11.06999969  47.11000061
H    21.93000031  10.95000076  47.67000198
H    21.01000023  11.76000023  51.77999878
H    12.71000004  13.22000027  52.11999893
H    23.38999939   9.84000015  49.91000366
H    23.64000130  11.49000072  49.16999817
S    11.80999947  12.15999985  47.56999969
C     9.28999996  12.71999931  48.31999969
C    10.57999992  12.63000011  48.72000122
C    10.97000027  12.97999954  50.04000092
C    10.06000042  13.35000038  51.00000000
C     8.78000069  13.38999939  50.63000107
C     7.82999992  13.89999962  51.58000183
C     6.51000023  14.02999973  51.14999771
C     6.12999964  13.71000099  49.80999756
C     6.98999977  13.17000008  48.94000244
C     8.39999962  13.02000046  49.29999924
C    12.38999939  12.72999954  50.13999939
C    12.96000004  12.27000046  48.90999603
C    14.28999996  11.89000034  48.80000305
C     4.81999969  14.19999981  49.29999924
H     4.57459068  13.73083591  48.34723663
H     8.98999977  12.60000038  47.28000259
H    10.44999981  13.73000050  51.93999863
H     8.23999977  14.22999954  52.52999878
H     5.91000032  14.67000008  51.79999924
H     6.84000015  13.05999947  47.87000275
H    14.65000057  11.51000023  47.84999847
H     4.84000015  15.29999924  49.25000000
H     4.00999975  14.02999973  50.02999878
