96

S    12.05999947  16.79999924  44.18000031
C     9.43000031  17.28999901  44.93000031
C    10.62999916  16.73999977  45.27000046
C    10.93999958  16.31999969  46.56999969
C     9.90999985  16.31000137  47.56999969
C     8.63000011  16.87999916  47.27000427
C     7.57999992  16.69000053  48.15999985
C     6.34999990  17.10000038  47.72999573
C     6.21999979  17.73999977  46.43000031
C     7.26000023  17.87999916  45.54999924
C     8.50000000  17.36999893  45.93000031
C    12.36999989  16.02000046  46.65000153
C    13.09999943  16.29999924  45.45999908
C    14.47000027  16.27000046  45.38000107
C     4.81999969  18.09000015  45.93999863
H     4.48981094  17.34875870  45.21223831
H     9.22999954  17.64000130  43.92000198
H    10.08999920  16.03000069  48.61000061
H     7.73999977  16.20000076  49.12000275
H     5.42999983  17.00000000  48.29000092
H     7.13999987  18.11000061  44.48999786
H    15.01000023  16.31999969  44.43999863
H     4.11999989  18.05999947  46.77999878
H     5.03000021  19.06999969  45.50000000
S    15.50000000  15.29999924  49.08000183
C    18.27000046  14.98000050  48.26000214
C    16.95999908  15.46000004  47.97000122
C    16.56999969  15.76000023  46.60999680
C    17.56000137  15.82999992  45.63999939
C    18.86999893  15.39999962  45.94999695
C    19.89999962  15.57000065  45.00000000
C    21.18000031  15.19000053  45.25000000
C    21.54999924  14.73999977  46.63000107
C    20.62000084  14.68000031  47.62000275
C    19.23999977  14.96999931  47.28000259
C    15.07999992  15.92000008  46.52000046
C    14.44000053  15.72000027  47.77000046
C    13.04999924  15.67999935  47.84999847
C    23.05000114  14.40000057  46.97999954
H    23.34512711  14.70215511  47.98484039
H    18.52000046  14.68999958  49.27999878
H    17.19000053  16.13999939  44.65999985
H    19.68000031  16.18000031  44.13000107
H    21.91999817  15.31000042  44.45999908
H    20.86999893  14.53999996  48.67000198
H    12.53000069  15.57000065  48.80000305
H    23.69999886  14.91000080  46.25000000
H    23.18000031  13.31999969  46.79999924
S    11.68000031  16.90000153  50.93999863
C     9.11999989  17.29999924  51.79999924
C    10.38000011  16.79999924  52.09000015
C    10.64000034  16.27000046  53.31999969
C     9.64999962  16.31000137  54.36000061
C     8.39999962  16.92000008  54.12000275
C     7.32999992  17.09000015  55.00999832
C     6.05999994  17.47999954  54.75000000
C     5.78000021  17.69000053  53.34999847
C     6.80999994  17.53000069  52.41000366
C     8.10000038  17.29999924  52.77000046
C    12.10999966  16.14999962  53.43999863
C    12.77999973  16.36000061  52.18000031
C    14.13000011  16.50000000  52.09999847
C     4.41000032  18.09999847  52.88999939
H     4.06648302  17.51812363  52.03470993
H     8.94999981  17.80999947  50.84999847
H     9.81999969  16.01000023  55.38999939
H     7.62000036  16.90000153  56.04000092
H     5.32999992  17.86000061  55.45999908
H     6.71999979  17.64000130  51.32999802
H    14.57999992  16.56999969  51.11999893
H     3.74000025  18.02999878  53.75000000
H     4.46000004  19.15999985  52.60000229
S    15.34999943  15.60999966  55.70999908
C    18.12000084  15.73999977  55.00999832
C    16.76000023  16.02000046  54.68999863
C    16.36999893  16.35000038  53.36999893
C    17.34000015  16.38000107  52.38999939
C    18.68000031  16.07999992  52.69000244
C    19.67000008  16.03000069  51.70000076
C    20.93000031  15.59999943  52.02999878
C    21.28000069  15.07999992  53.34000015
C    20.32999992  14.96999931  54.27999878
C    19.07999992  15.64000034  54.00000000
C    14.96999931  16.29999924  53.22999954
C    14.27999973  15.97000027  54.40000153
C    12.86999893  15.95000076  54.54999924
C    22.70000076  14.70000076  53.68000031
H    23.05785751  15.28239441  54.52903366
H    18.31999969  15.34000015  56.00000000
H    16.97999954  16.42000008  51.37000275
H    19.37999916  16.47999954  50.75000000
H    21.77999878  15.65999985  51.36000061
H    20.43999863  14.67000008  55.31999969
H    12.43999958  15.65999985  55.50000000
H    23.31000137  14.78000069  52.77000046
H    22.67000008  13.60999966  53.81000137
