96

S    12.30999947  16.55999947  44.15000153
C     9.68999958  17.13000107  44.93999863
C    10.92000008  16.60000038  45.21999741
C    11.21000099  16.18000031  46.58000183
C    10.08999920  16.28000069  47.45999908
C     8.78999996  16.72999954  47.18000031
C     7.75000000  16.97000122  48.13999939
C     6.48000002  17.23999977  47.75000000
C     6.28000021  17.53000069  46.39999771
C     7.35000038  17.63000107  45.51000214
C     8.60999966  17.09000015  45.84999847
C    12.64999962  16.00000000  46.81000137
C    13.35999966  16.23999977  45.56000137
C    14.73000050  16.26000023  45.45000076
C     4.96000004  18.04999924  45.91999817
H     4.48140383  17.33578682  45.24996185
H     9.44999981  17.64000130  44.01000214
H    10.32999992  16.00000000  48.48999786
H     7.88000011  16.62999916  49.15999985
H     5.82999992  17.25000000  48.61999893
H     7.20000029  18.06999969  44.52999878
H    15.17000008  16.39000130  44.47000122
H     4.33999968  18.23999977  46.81000137
H     5.10999966  19.03000069  45.45999908
S    15.95999908  14.92000008  49.00000000
C    18.56999969  14.68999958  48.13000107
C    17.30999947  15.08999920  47.90000153
C    16.90999985  15.71000004  46.66999817
C    17.80999947  15.77000046  45.63000107
C    19.19999886  15.44999981  45.89000320
C    20.27000046  15.52999973  44.86999893
C    21.52000046  15.21000004  45.20999908
C    21.88999939  14.80999947  46.51000214
C    20.96999931  14.68999958  47.49000168
C    19.61000061  14.89999962  47.19999695
C    15.47000027  15.95000076  46.62000275
C    14.80000019  15.60999966  47.84000015
C    13.35000038  15.62999916  47.94000244
C    23.29000092  14.61999989  46.81999969
H    23.59381676  15.14661312  47.72469330
H    18.78000069  14.19999981  49.08000183
H    17.47999954  16.11999893  44.65999985
H    20.05000114  15.85000038  43.85000229
H    22.20000076  15.08999920  44.36999893
H    21.19999886  14.22000027  48.44999695
H    12.84999943  15.26999950  48.82999802
H    23.95999908  14.98000050  46.03000259
H    23.44000053  13.53999996  46.88999939
S    16.03000069  13.23999977  52.09999847
C    18.64999962  12.43999958  51.35000229
C    17.28999901  12.38000011  51.07999802
C    16.75000000  11.77000046  49.94999695
C    17.59000015  11.31000042  48.99000168
C    18.98999977  11.26999950  49.23999786
C    19.88999939  10.69000053  48.33000183
C    21.22999954  10.59000015  48.56999969
C    21.77000046  11.05000019  49.79000092
C    20.88999939  11.61999893  50.73999786
C    19.47999954  11.80999947  50.47000122
C    15.36999893  12.03999996  49.86000061
C    14.81999969  12.69999981  50.97000122
C    13.45000076  13.05999947  51.11000061
C    23.19999886  10.92000008  50.10000229
H    23.55064392  11.36181068  51.03271484
H    19.04999924  12.81000042  52.29999924
H    17.06999969  10.92000008  48.11999893
H    19.60000038  10.40999985  47.31999969
H    21.93000031  10.29000092  47.80000305
H    21.19999886  11.96000004  51.72000122
H    13.02000046  13.31999969  52.08000183
H    23.51000023   9.86999989  50.05000305
H    23.75999832  11.35000038  49.25000000
S    12.02999973  12.23999977  47.57999802
C     9.35999966  12.84000015  48.34999847
C    10.72000027  12.76999950  48.62999725
C    11.26000023  13.07000065  49.93999863
C    10.39000034  13.50000000  50.94999695
C     8.98999977  13.56999969  50.70000076
C     8.10999966  14.13000011  51.65000153
C     6.77999973  14.13000011  51.39999771
C     6.23000050  13.64999962  50.15999603
C     7.13000011  13.21000004  49.15000153
C     8.47000027  13.19000053  49.40999985
C    12.64000034  12.84000015  50.04000092
C    13.22000027  12.28000069  48.81999969
C    14.51000023  11.85999966  48.70999908
C     4.96000004  14.25000000  49.71000290
H     4.63897371  13.83623219  48.75405502
H     8.93999958  12.53000069  47.39999771
H    10.64000034  13.78999901  51.97000122
H     8.60999966  14.57999992  52.50000000
H     6.21000004  14.70000076  52.11999893
H     6.74000025  13.00000000  48.15999985
H    14.88000011  11.51000023  47.75000000
H     5.05000019  15.32999992  49.56999969
H     4.18000031  14.09000015  50.45999908
