96

S    12.44999981  16.35000038  44.20999908
C     9.73999977  16.79000092  45.02999878
C    11.00999928  16.28999901  45.28999710
C    11.35000038  15.92000008  46.62000275
C    10.43000031  16.01000023  47.69000244
C     9.22000027  16.55999947  47.45999908
C     8.18000031  16.65999985  48.43000031
C     6.89000034  16.81999969  48.11999893
C     6.57000017  17.22999954  46.86999893
C     7.57000017  17.43000031  45.93000031
C     8.85999966  16.95000076  46.11000061
C    12.81000042  15.62999916  46.73999786
C    13.45999908  15.78999996  45.48999786
C    14.82999992  15.78999996  45.40999985
C     5.17000008  17.40999985  46.46999741
H     4.86934090  16.80868149  45.61202240
H     9.55000019  17.26000023  44.06000137
H    10.71000004  15.65999985  48.68000031
H     8.39999962  16.31999969  49.43999863
H     6.21000004  16.57999992  48.93000031
H     7.22000027  17.75000000  44.93999863
H    15.31999969  16.04999924  44.47999954
H     4.53000021  17.19000053  47.34000397
H     4.94999981  18.45999908  46.23000336
S    16.05999947  14.92000008  49.08000183
C    18.75000000  14.65999985  48.36999893
C    17.46999931  15.01000023  48.04000092
C    17.04000092  15.44999981  46.72000122
C    17.95999908  15.62999916  45.79999924
C    19.29999924  15.34000015  46.05999756
C    20.29999924  15.31999969  45.02999878
C    21.55999947  14.82999992  45.26000214
C    21.93000031  14.52000046  46.63000107
C    21.05999947  14.60000038  47.63999939
C    19.68000031  14.85000038  47.34000397
C    15.57000065  15.54999924  46.56000137
C    14.93999958  15.34000015  47.81000137
C    13.53999996  15.40999985  47.93000031
C    23.36999893  14.42000008  46.91999817
H    23.63524628  14.56658363  47.96702194
H    19.01000023  14.29999924  49.36999893
H    17.73999977  15.93999958  44.78000259
H    19.96000099  15.43000031  44.01000214
H    22.26000023  14.60000038  44.47000122
H    21.31000137  14.45000076  48.68000031
H    13.07000065  15.36000061  48.90999603
H    23.95999908  15.06999969  46.25000000
H    23.80000114  13.43999958  46.65999985
S    11.92000008  16.62999916  51.10000229
C     9.39999962  17.43999863  51.81999969
C    10.67000008  16.97000122  52.18999863
C    10.98999977  16.48999977  53.50999832
C     9.90999985  16.48999977  54.41999817
C     8.56999969  16.97999954  54.09999847
C     7.42999983  16.82999992  54.98000336
C     6.11000013  17.13000107  54.64000320
C     5.95000029  17.61000061  53.30999756
C     7.02000046  17.67000008  52.43999863
C     8.34999943  17.40999985  52.77000046
C    12.39999962  16.18999863  53.62999725
C    12.98999977  16.20000076  52.36000061
C    14.37000084  16.21000099  52.19999695
C     4.53999996  17.94999886  52.78999710
H     4.16160870  17.27889061  52.01893616
H     9.19000053  17.70000076  50.77999878
H     9.96999931  16.07999992  55.43000031
H     7.55999994  16.43000031  55.97999954
H     5.26999998  16.98999977  55.31000137
H     6.90999985  17.93000031  51.38999939
H    14.88000011  16.40999985  51.25999832
H     4.00000000  17.81999969  53.74000168
H     4.56999969  19.03000069  52.64999771
S    15.60999966  15.34999943  55.84999847
C    18.19000053  14.75999928  55.05000305
C    16.94000053  15.26999950  54.73999786
C    16.63999939  15.80000019  53.47000122
C    17.61999893  15.88999939  52.51999664
C    18.95000076  15.47000027  52.77999878
C    20.00000000  15.52000046  51.79999924
C    21.28000069  15.11000061  52.12999725
C    21.54999924  14.68999958  53.47999954
C    20.55999947  14.57999992  54.41999817
C    19.22000122  14.82999992  54.06000137
C    15.21000004  16.05999947  53.34999847
C    14.51000023  15.82999992  54.54999924
C    13.17000008  15.85000038  54.72999954
C    22.98999977  14.47000027  53.85000229
H    23.21048737  15.00343800  54.77462769
H    18.45999908  14.68999958  56.10000229
H    17.38999939  16.03999901  51.46999741
H    19.84000015  15.97000027  50.83000183
H    22.11000061  15.22999954  51.44000244
H    20.82999992  14.37999916  55.45000076
H    12.69000053  15.81999969  55.70999908
H    23.57000160  14.85000038  53.00000000
H    23.15999985  13.40000057  54.00000000
