96

S    12.17000008  16.26000023  44.41999817
C     9.53999996  17.14999962  45.12000275
C    10.76000023  16.55999947  45.48999786
C    11.03999996  16.28000069  46.86000061
C    10.08999920  16.45000076  47.85999680
C     8.80000019  16.95000076  47.44999695
C     7.71000004  17.15999985  48.40000153
C     6.44000006  17.53999901  48.02000046
C     6.23000050  17.88999939  46.69000244
C     7.26000023  17.84000015  45.75000000
C     8.56999969  17.43000031  46.11000061
C    12.48999977  16.07999992  47.00000000
C    13.17000008  16.07999992  45.80999756
C    14.52999973  16.03999901  45.70999908
C     4.76999998  18.18000031  46.23000336
H     4.41928005  17.48543739  45.46667099
H     9.26999950  17.43000031  44.10999680
H    10.24000072  15.95000076  48.81999969
H     7.92000008  16.93000031  49.45000076
H     5.60999966  17.60000038  48.72000122
H     7.03999996  17.88999939  44.68999863
H    15.01000023  16.26000023  44.75999832
H     4.05000019  18.22999954  47.04999924
H     4.74000025  19.20999908  45.84999847
S    15.70000076  15.67999935  49.38999939
C    18.46999931  15.19000053  48.73000336
C    17.13000107  15.42000008  48.36000061
C    16.80999947  15.71000004  47.04000092
C    17.76000023  15.72000027  46.04000092
C    19.11000061  15.44000053  46.27999878
C    20.23999977  15.36999893  45.33000183
C    21.44000053  14.80000019  45.76000214
C    21.68999863  14.55999947  47.09000015
C    20.75000000  14.73000050  48.04000092
C    19.44000053  15.13000011  47.69000244
C    15.31999969  15.80000019  46.84000015
C    14.60000038  15.84000015  48.01000214
C    13.27000046  15.95999908  48.15999985
C    23.01000214  14.21000004  47.50000000
H    23.37277794  14.89287281  48.26823044
H    18.78000069  14.91000080  49.72999954
H    17.46000099  15.98000050  45.01999664
H    19.97999954  15.69000053  44.31999969
H    22.27999878  14.65999985  45.07999802
H    20.86000061  14.37000084  49.06000137
H    12.79999924  16.10000038  49.13000107
H    23.68999863  14.37000084  46.65999985
H    23.18000031  13.19000053  47.88000107
S    11.96000004  17.11000061  51.25000000
C     9.27999973  17.65999985  51.90999985
C    10.52000046  17.12000084  52.29999924
C    10.80999947  16.62999916  53.61000061
C     9.77000046  16.76000023  54.55999756
C     8.40999985  17.10000038  54.22000122
C     7.23999977  17.10000038  55.06999969
C     5.98999977  17.54999924  54.58000183
C     5.82999992  17.94000053  53.22000122
C     6.93000031  18.02999878  52.45999908
C     8.23000050  17.60000038  52.85999680
C    12.23000050  16.40999985  53.76999664
C    12.94999981  16.62999916  52.56999969
C    14.32999992  16.72999954  52.56000137
C     4.51000023  18.45000076  52.69000244
H     4.03658533  17.72320747  52.02988815
H     9.15000057  18.17000008  50.96000290
H    10.03000069  16.67000008  55.61000061
H     7.31999969  16.79999924  56.11999893
H     5.14999962  17.52000046  55.27000046
H     6.85999966  18.45000076  51.45999908
H    14.84000015  17.07999992  51.65999985
H     3.84999990  18.67000008  53.53000259
H     4.61000013  19.37999916  52.11999893
S    15.31000042  15.52999973  56.31999969
C    17.97999954  15.34999943  55.59000015
C    16.73999977  15.75000000  55.27000046
C    16.42000008  16.06999969  53.94000244
C    17.39999962  16.10999870  53.01000214
C    18.70000076  15.82999992  53.23999786
C    19.75000000  15.82999992  52.29999924
C    20.96999931  15.31000042  52.55000305
C    21.21999931  14.78000069  53.86000061
C    20.25000000  14.86999989  54.85000229
C    19.00000000  15.39000034  54.59999847
C    15.01999950  16.31000137  53.68999863
C    14.27000046  16.03000069  54.93000031
C    12.89000034  16.10000038  54.93000031
C    22.60000038  14.22999954  54.15000153
H    23.10420990  14.90227795  54.84420395
H    18.30000114  14.80999947  56.47999573
H    17.11000061  16.39000130  52.00000000
H    19.52000046  16.21000099  51.31000137
H    21.70000076  15.22999954  51.75000000
H    20.39999962  14.53999996  55.87999725
H    12.30999947  16.14999962  55.84999847
H    23.09999847  14.02999973  53.20000076
H    22.46999931  13.30000019  54.72999954
