96

S    12.43999958  16.77999878  44.54999924
C     9.80000019  17.02999878  45.28999710
C    11.03000069  16.63999939  45.61999893
C    11.43000031  16.18000031  46.88999939
C    10.42000008  15.98999977  47.78999710
C     9.06999969  16.29999924  47.49000168
C     7.94000053  16.01000023  48.36000061
C     6.63000011  16.43000031  48.08000183
C     6.46000004  17.18000031  46.84999847
C     7.48000050  17.40999985  45.97999954
C     8.73999977  16.84999847  46.20999908
C    12.89000034  16.10000038  47.05999756
C    13.59000015  16.31999969  45.86000061
C    15.00000000  16.43000031  45.72999954
C     5.05000019  17.39999962  46.45000076
H     4.85774374  16.97112083  45.46653748
H     9.67000008  17.77000046  44.50000000
H    10.52000046  15.36000061  48.67000198
H     8.15999985  15.46000004  49.27999878
H     5.75999975  16.14999962  48.67000198
H     7.26999998  18.05999947  45.13000107
H    15.44999981  16.87000084  44.85000229
H     4.30999994  17.13000107  47.22000122
H     4.99000025  18.50000000  46.42000198
S    16.13999939  15.29999924  49.33000183
C    18.82999992  15.06999969  48.60000229
C    17.56000137  15.48999977  48.34000015
C    17.20000076  16.02000046  47.05999756
C    18.19000053  16.21999931  46.12999725
C    19.45999908  15.62000084  46.29000092
C    20.53999901  15.85999966  45.40999985
C    21.80999947  15.36000061  45.72999954
C    22.03000069  14.70000076  46.95999908
C    21.04000092  14.52000046  47.84999847
C    19.78999901  15.01000023  47.57999802
C    15.73999977  16.07999992  46.84000015
C    15.05000019  15.76000023  48.02999878
C    13.66000080  15.85000038  48.18999863
C    23.44000053  14.34999943  47.23999786
H    23.73533249  14.95507145  48.09718323
H    19.09000015  14.75000000  49.61000061
H    17.95999908  16.76000023  45.20999908
H    20.43999863  16.45000076  44.51000214
H    22.63999939  15.55999947  45.06000137
H    21.21999931  14.06000042  48.81999969
H    13.19000053  15.46000004  49.09000015
H    24.13000107  14.67000008  46.45000076
H    23.64000130  13.30999947  47.49000168
S    16.01000023  12.93000031  52.11999893
C    18.55999947  12.32999992  51.37000275
C    17.28000069  12.35999966  51.04000092
C    16.84000015  11.90999985  49.75999832
C    17.76000023  11.51999950  48.80000305
C    19.14999962  11.47999954  49.10999680
C    20.15999985  11.11999989  48.13000107
C    21.44000053  11.09000015  48.44999695
C    21.88999939  11.44999981  49.79999924
C    20.94000053  11.80999947  50.68000031
C    19.55999947  11.94000053  50.40000153
C    15.38000011  11.97999954  49.71000290
C    14.78000069  12.48000050  50.93999863
C    13.45000076  12.76000023  51.04999924
C    23.34000015  11.16000080  50.28999710
H    23.65908432  11.68471813  51.19052887
H    18.95000076  12.60000038  52.35000229
H    17.46000099  11.03000069  47.88000107
H    19.96999931  10.82999992  47.09999847
H    22.13000107  10.62000084  47.75000000
H    21.09000015  11.82000065  51.76000214
H    12.97000027  13.31999969  51.84999847
H    23.45000076  10.07999992  50.43000031
H    24.03000069  11.28999901  49.45000076
S    12.09000015  11.79999924  47.38999939
C     9.39999962  12.23000050  48.18999863
C    10.75000000  12.25000000  48.50000000
C    11.18999958  12.68000031  49.84000397
C    10.25000000  12.93000031  50.80999756
C     8.84000015  12.93000031  50.52000046
C     7.90000010  13.43000031  51.40999603
C     6.57999992  13.42000008  51.13999939
C     6.15000010  13.05999947  49.86999893
C     7.03999996  12.61999989  48.90999603
C     8.43999958  12.58999920  49.19000244
C    12.61999989  12.56000042  49.97000122
C    13.22000027  12.07999992  48.74000168
C    14.60000038  11.80999947  48.60000229
C     4.71000004  13.32999992  49.52999878
H     4.44468307  13.10657597  48.49665833
H     9.11000061  11.87999916  47.19999695
H    10.52999973  13.32999992  51.79000092
H     8.19000053  13.71999931  52.42000198
H     5.78000021  13.75000000  51.79000092
H     6.70000029  12.44999981  47.88999939
H    15.01999950  11.61000061  47.62000275
H     4.63000011  14.42999935  49.55999756
H     4.13000011  12.94999981  50.38000107
