96

S    11.96000004  16.90999985  44.34999847
C     9.35000038  17.35000038  45.00999832
C    10.57999992  16.90999985  45.38000107
C    10.88999939  16.39999962  46.63000107
C     9.85000038  16.31000137  47.56000137
C     8.53999996  16.77000046  47.19999695
C     7.44000006  16.39999962  48.04000092
C     6.24000025  16.93000031  47.67000198
C     5.97000027  17.73999977  46.47999573
C     7.07000017  17.94999886  45.63999939
C     8.36000061  17.46000099  45.98999786
C    12.31999969  16.21000099  46.75000000
C    13.02999973  16.47999954  45.56999969
C    14.40999985  16.44000053  45.44000244
C     4.51000023  18.02000046  46.04999924
H     4.21345854  17.58224869  45.09682846
H     9.19000053  17.73999977  44.01000214
H    10.05000019  15.86999989  48.54000092
H     7.59999990  15.77999973  48.92000198
H     5.38000011  16.50000000  48.18000031
H     7.03999996  18.25000000  44.59000015
H    14.88999939  16.67000008  44.48999786
H     3.81000018  17.77000046  46.84999847
H     4.46000004  19.10000038  45.90999985
S    15.59000015  15.71000004  49.19000244
C    18.25000000  15.22999954  48.47000122
C    17.00000000  15.60999966  48.11000061
C    16.61999893  15.95000076  46.77000046
C    17.67000008  15.93000031  45.80999756
C    19.01000023  15.55999947  46.17000198
C    20.09000015  15.43000031  45.31000137
C    21.35999870  15.17000008  45.70000076
C    21.64999962  14.73000050  47.00000000
C    20.53999901  14.60999966  47.83000183
C    19.26000023  15.17000008  47.49000168
C    15.18000031  16.06999969  46.56999969
C    14.48999977  15.98000050  47.80000305
C    13.10999966  16.03000069  47.90000153
C    23.01000214  14.28999996  47.43999863
H    23.33435631  14.75538063  48.37075806
H    18.50000000  14.96999931  49.48999786
H    17.35999870  16.04999924  44.78000259
H    19.88000107  15.77999973  44.29999924
H    22.14999962  15.31999969  44.97000122
H    20.69999886  14.14000034  48.80000305
H    12.64000034  15.93000031  48.87000275
H    23.72999954  14.42000008  46.62000275
H    22.95000076  13.21000004  47.63999939
S    11.80999947  17.02000046  51.02000427
C     9.15000057  17.31999969  51.59999847
C    10.39999962  16.90000153  51.97000122
C    10.77000046  16.53000069  53.33000183
C     9.76000023  16.60000038  54.34000015
C     8.51000023  17.17000008  53.99000168
C     7.51999950  17.13999939  55.00999832
C     6.21000004  17.50000000  54.65000153
C     5.88999987  17.88999939  53.36999893
C     6.84999990  17.93000031  52.34000397
C     8.14999962  17.40999985  52.61000061
C    12.20999908  16.28999901  53.52000427
C    12.94999981  16.57999992  52.31999969
C    14.30999947  16.61000061  52.30999756
C     4.41000032  18.11000061  52.91999817
H     4.07200193  17.47074318  52.10439682
H     9.00000000  17.78000069  50.63000107
H     9.89999962  16.31000137  55.38000107
H     7.76999998  16.77999878  56.00999832
H     5.38999987  17.36999893  55.34999847
H     6.54999971  18.02999878  51.30000305
H    14.85999966  16.90999985  51.42000198
H     3.86000013  18.07999992  53.87000275
H     4.30000019  19.10000038  52.45999908
S    15.26999950  15.59999943  56.04000092
C    18.04000092  15.60999966  55.54999924
C    16.70999908  15.86999989  55.10000229
C    16.40999985  16.14999962  53.73000336
C    17.38000107  16.20000076  52.80000305
C    18.67000008  15.84000015  53.22000122
C    19.62000084  15.88999939  52.21000290
C    20.93000031  15.39999962  52.43000031
C    21.25999832  15.01000023  53.80000305
C    20.31999969  15.06999969  54.75999832
C    19.02000046  15.52000046  54.54000092
C    14.98999977  16.36000061  53.48999786
C    14.26000023  15.98999977  54.61000061
C    12.92000008  15.98999977  54.62999725
C    22.62000084  14.55000019  54.15000153
H    22.88684082  14.96107864  55.12360764
H    18.18000031  15.11999989  56.51000214
H    17.13000107  16.62999916  51.83000183
H    19.23999977  16.18999863  51.23000336
H    21.59000015  15.14999962  51.60999680
H    20.53999901  14.65000057  55.72999954
H    12.36999989  15.82999992  55.54999924
H    23.34000015  14.80999947  53.36000061
H    22.65000153  13.45000076  54.19000244
