96

S    12.23999977  16.36000061  44.22999954
C     9.65999985  17.18000031  45.04000092
C    10.86999989  16.61000061  45.34999847
C    11.23999977  16.18000031  46.68000031
C    10.24000072  16.13999939  47.62000275
C     8.93999958  16.61000061  47.34000397
C     7.92000008  16.40999985  48.29000092
C     6.65000010  16.97000122  48.06000137
C     6.46000004  17.69000053  46.88000107
C     7.40000010  17.73999977  45.89000320
C     8.67000008  17.19000053  46.07999802
C    12.67000008  15.92000008  46.86000061
C    13.35000038  16.14999962  45.61000061
C    14.78999996  16.04999924  45.52999878
C     5.03999996  18.13999939  46.56999969
H     4.61682940  17.47703362  45.81534576
H     9.35000038  17.56999969  44.08000183
H    10.55999947  15.71000004  48.56999969
H     8.03999996  15.86999989  49.22000122
H     5.88999987  16.81999969  48.81999969
H     7.25000000  18.12999916  44.88999939
H    15.39000034  16.31999969  44.66999817
H     4.53000021  18.02999878  47.52999878
H     5.00999975  19.19000053  46.24000168
S    15.82999992  14.91000080  49.10999680
C    18.51000023  14.56999969  48.46000290
C    17.25000000  14.98000050  48.13000107
C    16.97000122  15.36000061  46.76000214
C    17.98999977  15.54999924  45.89000320
C    19.31999969  15.34999943  46.25999832
C    20.38999939  15.52999973  45.30000305
C    21.70999908  15.14999962  45.59999847
C    21.90000153  14.59000015  46.90000153
C    20.88999939  14.40999985  47.77999878
C    19.57999992  14.88999939  47.58999634
C    15.51000023  15.57000065  46.59999847
C    14.75999928  15.34999943  47.81000137
C    13.43000031  15.52000046  47.90000153
C    23.26999855  14.04000092  47.35000229
H    23.60225296  14.66759205  48.17694473
H    18.78000069  13.88000011  49.26000214
H    17.77000046  15.86999989  44.87999725
H    20.17000008  15.86999989  44.29000092
H    22.46000099  15.13000011  44.80999756
H    21.21999931  13.94999981  48.69999695
H    12.89000034  15.14999962  48.76999664
H    23.95000076  14.14999962  46.49000168
H    23.23999786  12.96000004  47.52999878
S    11.94000053  16.72000122  50.93999863
C     9.34000015  17.20000076  51.69000244
C    10.54999924  16.72000122  51.98999786
C    10.90000057  16.34000015  53.31999969
C     9.88000011  16.28999901  54.20000076
C     8.52000046  16.69999886  53.92000198
C     7.50000000  16.62999916  54.86999893
C     6.19000006  16.98999977  54.54000092
C     5.97000027  17.46000099  53.18999863
C     6.98000002  17.64999962  52.29000092
C     8.23999977  17.13999939  52.58999634
C    12.34000015  16.18000031  53.46000290
C    13.02000046  16.31999969  52.25000000
C    14.35999966  16.15999985  52.14000320
C     4.65000010  18.05999947  52.90000153
H     4.24197626  17.67272377  51.96638870
H     9.02000046  17.59000015  50.72000122
H    10.06999969  15.77000046  55.13000107
H     7.86000013  16.27000046  55.83000183
H     5.40999985  16.97999954  55.28999710
H     6.83000040  18.13999939  51.32999802
H    14.82999992  16.31999969  51.17000198
H     4.01999998  18.05999947  53.79000092
H     4.90000010  19.11999893  52.75000000
S    15.60999966  15.52999973  55.87999725
C    18.17000008  15.03000069  55.07999802
C    16.90999985  15.34999943  54.72000122
C    16.52000046  15.54999924  53.36000061
C    17.48999977  15.52999973  52.32999802
C    18.86000061  15.19000053  52.69000244
C    19.90999985  15.13000011  51.72999954
C    21.19999886  14.93000031  52.02999878
C    21.54000092  14.72000027  53.43999863
C    20.55000114  14.65999985  54.34000015
C    19.14999962  14.98999977  54.06000137
C    15.14999962  15.80999947  53.25000000
C    14.48999977  15.76000023  54.52999878
C    13.12999916  16.00000000  54.59999847
C    22.96999931  14.47000027  53.86000061
H    23.10535431  14.83331871  54.87871552
H    18.45999908  14.78000069  56.10000229
H    17.21999931  15.77999973  51.31000137
H    19.57999992  15.31999969  50.70999908
H    21.93000031  14.80999947  51.23000336
H    20.76000023  14.22999954  55.31999969
H    12.65999985  16.29999924  55.54000092
H    23.67000198  14.93999958  53.15999985
H    23.09000015  13.38999939  53.74000168
