96

S    11.87999916  16.80999947  44.29999924
C     9.25000000  17.07999992  45.00999832
C    10.47999954  16.68000031  45.38999939
C    10.77999973  16.10000038  46.66999817
C     9.85000038  16.18000031  47.68000031
C     8.52000046  16.67000008  47.32999802
C     7.42999983  16.72000122  48.22000122
C     6.19000006  17.07999992  47.81000137
C     5.93999958  17.53000069  46.49000168
C     6.94999981  17.53999901  45.56000137
C     8.25000000  17.13999939  45.94999695
C    12.18000031  15.98999977  46.79000092
C    12.89999962  16.13999939  45.54999924
C    14.27000046  16.13000107  45.47000122
C     4.57999992  17.87999916  46.00000000
H     4.35477686  17.26438904  45.12913895
H     8.97000027  17.29999924  43.97999573
H    10.06999969  15.76000023  48.66000366
H     7.51999950  16.22999954  49.18000031
H     5.40000010  16.93000031  48.53000259
H     6.88000011  17.94000053  44.54999924
H    14.75999928  16.39999962  44.54000092
H     3.77999997  17.61000061  46.70999908
H     4.55999994  18.95000076  45.77000046
S    15.26999950  15.40999985  49.25000000
C    18.05999947  15.13000011  48.50000000
C    16.72000122  15.47999954  48.25000000
C    16.40999985  15.93000031  46.90999985
C    17.36999893  16.03999901  45.91999817
C    18.72999954  15.65999985  46.20999908
C    19.77000046  15.73999977  45.26000214
C    21.04999924  15.36000061  45.66999817
C    21.37000084  14.88999939  46.95000076
C    20.38000107  14.80999947  47.88000107
C    19.05999947  15.22999954  47.55000305
C    14.96999931  15.97000027  46.70000076
C    14.23999977  15.69000053  47.85999680
C    12.86000061  15.71000004  47.94000244
C    22.70000076  14.29999924  47.25999832
H    23.08351517  14.72535229  48.18740845
H    18.32999992  14.75999928  49.48999786
H    17.10000038  16.42000008  44.93999863
H    19.51000023  16.17000008  44.29999924
H    21.78999901  15.52000046  44.88999939
H    20.62000084  14.35999966  48.83999634
H    12.30000019  15.54999924  48.85000229
H    23.47999954  14.34000015  46.49000168
H    22.56000137  13.22999954  47.43999863
S    16.13000107  12.69999981  52.16999817
C    18.82999992  12.38000011  51.37000275
C    17.50000000  12.28000069  51.09000397
C    17.00000000  11.84000015  49.85000229
C    17.94999886  11.46999931  48.87000275
C    19.29999924  11.52999973  49.15000153
C    20.23999977  10.93000031  48.27000046
C    21.52000046  10.70000076  48.64999771
C    22.06000137  11.17000008  49.87999725
C    21.18000031  11.82000065  50.70000076
C    19.78000069  11.97999954  50.44000244
C    15.60999966  12.03999996  49.72000122
C    15.05000019  12.61000061  50.87999725
C    13.64999962  12.97000027  51.00000000
C    23.43000031  10.65000057  50.35999680
H    23.61778450  11.01112366  51.37114716
H    19.20999908  12.71999931  52.32999802
H    17.56000137  11.00000000  47.97000122
H    19.81999969  10.51000023  47.36000061
H    22.21999931  10.11999989  48.04999924
H    21.40999985  11.96000004  51.76000214
H    13.17000008  13.40000057  51.88000107
H    23.52999878   9.55999947  50.30000305
H    24.26000214  10.98999977  49.73999786
S    12.18000031  11.68000031  47.61000061
C     9.53999996  12.53999901  48.13999939
C    10.84000015  12.48000050  48.50000000
C    11.31999969  12.96000004  49.78000259
C    10.46000004  13.57999992  50.61999893
C     9.11999989  13.66000080  50.28999710
C     8.19000053  14.21000004  51.22000122
C     6.80000019  14.25000000  51.04999924
C     6.37000036  13.67000008  49.79999924
C     7.23000002  13.14000034  48.83999634
C     8.60999966  13.12999916  49.06000137
C    12.77999973  12.71000004  49.92000198
C    13.38999939  12.05000019  48.82999802
C    14.75999928  11.82000065  48.61999893
C     4.88999987  13.73999977  49.48999786
H     4.57058525  13.26813793  48.56079483
H     9.15999985  12.25000000  47.15999985
H    10.82999992  14.04000092  51.52999878
H     8.69999981  14.65999985  52.06999969
H     6.14000034  14.68999958  51.79000092
H     6.90999985  12.81999969  47.85999680
H    15.19000053  11.43000031  47.70000076
H     4.46999979  14.75000000  49.62999725
H     4.30000019  13.27000046  50.28999710
