96

S    12.48000050  16.79000092  44.25000000
C     9.98000050  17.19000053  45.02999878
C    11.10999966  16.61000061  45.34000015
C    11.36000061  15.98000050  46.56000137
C    10.39999962  15.90999985  47.51999664
C     9.11000061  16.47999954  47.16999817
C     7.99000025  16.13999939  47.91999817
C     6.71999979  16.54000092  47.58999634
C     6.60000038  17.36999893  46.43000031
C     7.65999985  17.69000053  45.61000061
C     8.94999981  17.22999954  45.93000031
C    12.77999973  15.75000000  46.72999954
C    13.47000027  16.10999870  45.52999878
C    14.86999989  16.07999992  45.47999954
C     5.18000031  17.73999977  46.00000000
H     4.84038162  17.01831245  45.25708389
H     9.81999969  17.56999969  44.02999878
H    10.59999943  15.42000008  48.47000122
H     8.30000019  15.44999981  48.69999695
H     5.86999989  16.10999870  48.11000061
H     7.48000050  18.05999947  44.61000061
H    15.31000042  16.38000107  44.54000092
H     4.56999969  17.76000023  46.91999817
H     5.18000031  18.73999977  45.56000137
S    15.95999908  14.92000008  49.05000305
C    18.64999962  14.72000027  48.23999786
C    17.35999870  15.11000061  47.97999954
C    16.98999977  15.59000015  46.70999908
C    17.95999908  15.81999969  45.75000000
C    19.31999969  15.36000061  45.93000031
C    20.36000061  15.40999985  44.94999695
C    21.63000107  15.03999901  45.19000244
C    21.86000061  14.34999943  46.43000031
C    20.86999893  14.15999985  47.39999771
C    19.60000038  14.75999928  47.23999786
C    15.53999996  15.75000000  46.58000183
C    14.88000011  15.44000053  47.77000046
C    13.53000069  15.34000015  47.88000107
C    23.23999786  13.93000031  46.79999924
H    23.49888229  14.44776440  47.72357941
H    18.90999985  14.19000053  49.15000153
H    17.59000015  16.14999962  44.78000259
H    20.09000015  15.85000038  43.99000168
H    22.40999985  15.17000008  44.45000076
H    21.11000061  13.76000023  48.37999725
H    13.02999973  14.98000050  48.76999664
H    23.92999840  14.07999992  45.97000122
H    23.26000023  12.86000061  47.02999878
S    15.78999996  12.48999977  52.18999863
C    18.40999985  11.87999916  51.51000214
C    17.07999992  11.84000015  51.18999863
C    16.64999962  11.43000031  49.85000229
C    17.64000130  11.07999992  48.95000076
C    19.05999947  11.13999939  49.25000000
C    20.02000046  10.70000076  48.34999847
C    21.31999969  10.54999924  48.76999664
C    21.70999908  11.00000000  50.07999802
C    20.78000069  11.28999901  50.98999786
C    19.43000031  11.49000072  50.63999939
C    15.19000053  11.68000031  49.71000290
C    14.61999989  12.23000050  50.93000031
C    13.23999977  12.51999950  50.96000290
C    23.12000084  10.65999985  50.59000015
H    23.52397537  11.16870975  51.46528244
H    18.73999977  12.05000019  52.52999878
H    17.22999954  10.67000008  48.02999878
H    19.67000008  10.29000092  47.41000366
H    22.04000092  10.11999989  48.08000183
H    21.00000000  11.51999950  52.02999878
H    12.79000092  12.89999962  51.86999893
H    23.31000137   9.57999992  50.68000031
H    23.71999931  10.97000027  49.72999954
S    11.84000015  11.25000000  47.43000031
C     9.22000027  11.84000015  48.29000092
C    10.53999996  11.87000084  48.50000000
C    11.00999928  12.48000050  49.72999954
C    10.15999985  13.02999973  50.66999817
C     8.84000015  12.94999981  50.43000031
C     7.92000008  13.63000011  51.31000137
C     6.57000017  13.38999939  51.20999908
C     6.03999996  12.72999954  50.06999969
C     6.90000010  12.22000027  49.13000107
C     8.27999973  12.27000046  49.29000092
C    12.43000031  12.20000076  49.85000229
C    13.07999992  11.69000053  48.62999725
C    14.46000004  11.46000004  48.54999924
C     4.51999998  12.64000034  49.69999695
H     4.23009205  13.35416412  48.92926788
H     8.80000019  11.43000031  47.37999725
H    10.52000046  13.48999977  51.58000183
H     8.30999947  14.34999943  52.02000046
H     5.91000032  13.76000023  51.98999786
H     6.53999996  11.90999985  48.15000153
H    14.96999931  10.95000076  47.74000168
H     3.96000004  12.81000042  50.63000107
H     4.28000021  11.61999893  49.38999939
