96

S    12.32999992  16.20000076  44.03999710
C     9.76000023  16.97999954  44.91000366
C    10.92000008  16.23999977  45.11000061
C    11.26000023  15.85000038  46.45000076
C    10.26999950  15.80000019  47.42000198
C     8.94999981  16.28000069  47.15999985
C     7.90000010  16.28000069  48.06000137
C     6.63999987  16.73999977  47.83000183
C     6.37000036  17.35000038  46.56000137
C     7.35000038  17.43000031  45.66999817
C     8.65999985  16.88999939  45.90000153
C    12.65999985  15.70000076  46.58000183
C    13.30999947  15.80999947  45.33000183
C    14.67000008  15.75000000  45.25000000
C     5.00000000  17.67000008  46.14999771
H     4.60559320  16.96570206  45.41753006
H     9.52000046  17.43000031  43.95000076
H    10.47999954  15.25000000  48.34000015
H     8.11999989  15.81999969  49.02000046
H     5.84000015  16.45000076  48.50000000
H     7.05999947  18.00000000  44.79000092
H    15.14000034  15.72000027  44.27999878
H     4.30999994  17.76000023  47.00000000
H     5.13000011  18.65999985  45.70000076
S    15.80999947  14.85999966  48.92000198
C    18.53999901  14.63999939  48.20999908
C    17.21999931  14.93999958  47.84000015
C    16.90000153  15.27999973  46.50000000
C    17.87999916  15.47000027  45.56999969
C    19.27000046  15.19000053  45.90999985
C    20.36000061  15.27999973  45.01999664
C    21.61999893  15.00000000  45.47999954
C    21.87000084  14.45000076  46.72999954
C    20.86999893  14.27999973  47.60000229
C    19.54000092  14.68000031  47.22999954
C    15.43000031  15.46000004  46.38999939
C    14.78000069  15.32999992  47.67000198
C    13.38999939  15.52999973  47.70999908
C    23.22000122  13.93000031  47.11999893
H    23.57837677  14.57648277  47.92107773
H    18.73999977  14.27999973  49.22000122
H    17.54999924  15.88000107  44.61999893
H    20.32999992  15.71000004  44.02000046
H    22.49000168  15.31999969  44.89999771
H    21.27000046  14.04000092  48.57999802
H    12.89999962  15.62000084  48.68000031
H    23.94000053  13.73000050  46.31999969
H    23.01000214  12.92000008  47.50000000
S    16.05999947  12.46000099  52.22999954
C    18.72999954  11.97000027  51.42000198
C    17.38999939  11.90999985  51.18000031
C    16.90000153  11.44999981  49.93999863
C    17.86999893  11.00000000  48.97999573
C    19.23999977  11.11999989  49.22000122
C    20.17000008  10.81999969  48.25000000
C    21.56999969  10.85999966  48.50999832
C    21.98999786  11.17000008  49.86000061
C    21.11999893  11.68000031  50.70000076
C    19.65999985  11.61000061  50.45999908
C    15.48999977  11.72000027  49.75000000
C    14.86999989  12.32999992  50.90999985
C    13.48000050  12.69000053  50.90999985
C    23.45999908  10.80999947  50.27000046
H    23.72434998  11.13150978  51.27739716
H    19.09000015  12.25000000  52.39999771
H    17.56000137  10.88000107  47.95000076
H    19.71999931  10.48999977  47.31999969
H    22.29999924  10.43000031  47.84000015
H    21.31999969  12.10999966  51.68000031
H    12.97000027  12.97000027  51.81999969
H    23.52000046   9.72000027  50.24000168
H    24.04000092  11.42000008  49.56999969
S    12.22000027  11.65999985  47.31999969
C     9.55999947  12.38000011  48.04000092
C    10.85999966  12.25000000  48.36000061
C    11.43000031  12.69000053  49.58000183
C    10.62999916  13.22000027  50.59000015
C     9.23999977  13.35000038  50.34999847
C     8.30999947  13.73000050  51.36000061
C     6.96000004  13.86999989  51.16000366
C     6.44999981  13.48000050  49.92000198
C     7.28999996  12.93000031  48.92000198
C     8.69999981  12.89999962  49.09999847
C    12.79999924  12.42000008  49.73999786
C    13.42000008  11.80999947  48.62999725
C    14.77000046  11.50000000  48.56999969
C     5.00999975  13.82999992  49.59999847
H     4.71436357  13.51994228  48.59771729
H     9.10000038  12.10000038  47.09000015
H    11.00999928  13.59000015  51.53999710
H     8.63000011  14.09000015  52.32999802
H     6.38000011  14.39000034  51.90999985
H     6.84999990  12.75000000  47.95000076
H    15.10000038  11.21000099  47.57999802
H     4.82999992  14.89999962  49.73999786
H     4.41000032  13.28999996  50.34000015
