96

S    12.28999996  16.60000038  44.02999878
C     9.56999969  16.97999954  44.72999954
C    10.81999969  16.61000061  45.08999634
C    11.19999981  16.25000000  46.45999908
C    10.21999931  16.23999977  47.43000031
C     8.86999989  16.61000061  47.09999847
C     7.78999996  16.60000038  48.04999924
C     6.52999973  16.94000053  47.68000031
C     6.28000021  17.50000000  46.39999771
C     7.31999969  17.72999954  45.52000046
C     8.61999989  17.13000107  45.77000046
C    12.68000031  15.97000027  46.56999969
C    13.31999969  16.13999939  45.34000015
C    14.73000050  16.09000015  45.22999573
C     4.86000013  17.79000092  45.97000122
H     4.59722662  17.24370766  45.06412506
H     9.13999939  17.22999954  43.76999664
H    10.53999996  15.98999977  48.43999863
H     8.05999947  16.26000023  49.05000305
H     5.69999981  16.88999939  48.37999725
H     7.22000027  18.32999992  44.61999893
H    15.18000031  16.28999901  44.26000214
H     4.21999979  17.54999924  46.83000183
H     4.82999992  18.88000107  45.86999893
S    15.97000027  15.39999962  48.93000031
C    18.57999992  14.88999939  48.09000015
C    17.34000015  15.39999962  47.80000305
C    16.97000122  15.75000000  46.45999908
C    17.97000122  15.72000027  45.50000000
C    19.32999992  15.42000008  45.79999924
C    20.36000061  15.52000046  44.92000198
C    21.59000015  14.98000050  45.21999741
C    21.81999969  14.40999985  46.50000000
C    20.84000015  14.48999977  47.42000198
C    19.57999992  15.03999901  47.15000153
C    15.47999954  15.88999939  46.35000229
C    14.82999992  15.65999985  47.58999634
C    13.48000050  15.65000057  47.70000076
C    23.19000053  13.92000008  46.93000031
H    23.60098839  14.62661266  47.65103531
H    18.77000046  14.42000008  49.05000305
H    17.65999985  15.72999954  44.45999908
H    20.27000046  16.05999947  43.97999573
H    22.39999962  14.77000046  44.52999878
H    20.97999954  14.09000015  48.41999817
H    13.07999992  15.47999954  48.68999863
H    23.81000137  13.82999992  46.03000259
H    23.05999947  12.92000008  47.36000061
S    12.03999996  16.92000008  50.96000290
C     9.44000053  17.28000069  51.72999954
C    10.65000057  16.87000084  52.09000015
C    10.93999958  16.38000107  53.37999725
C     9.92999935  16.39000130  54.31999969
C     8.60999966  16.86000061  53.95000076
C     7.51999950  16.87000084  54.82999802
C     6.32999992  17.40999985  54.52999878
C     6.02999973  17.87999916  53.20999908
C     7.11999989  17.97999954  52.34000397
C     8.34999943  17.39999962  52.68000031
C    12.41000080  16.18000031  53.54000092
C    13.07999992  16.40999985  52.32999802
C    14.47999954  16.51000023  52.23999786
C     4.63999987  18.17000008  52.78999710
H     4.39352465  17.79343987  51.79724884
H     9.23999977  17.46999931  50.68000031
H    10.14000034  16.13999939  55.34999847
H     7.59999990  16.32999992  55.77000046
H     5.55999994  17.46999931  55.28999710
H     7.04999971  18.32999992  51.31000137
H    15.00000000  16.76000023  51.32999802
H     4.03999996  17.76000023  53.61999893
H     4.51999998  19.26000023  52.76000214
S    15.76000023  15.62999916  55.90000153
C    18.38000107  15.52999973  55.24000168
C    17.12000084  15.86999989  54.86000061
C    16.70999908  16.20000076  53.50999832
C    17.72999954  16.10999870  52.54000092
C    18.98999977  15.70000076  52.85999680
C    19.95000076  15.57000065  51.83000183
C    21.25000000  15.13000011  52.09000015
C    21.56999969  14.75000000  53.41999817
C    20.69000053  14.93000031  54.47000122
C    19.37999916  15.38000011  54.22999954
C    15.25000000  16.25000000  53.40000153
C    14.60000038  16.02000046  54.61999893
C    13.23999977  15.93000031  54.65000153
C    22.95999908  14.40000057  53.83999634
H    23.08036613  14.40708065  54.92330551
H    18.70000076  15.44999981  56.26999664
H    17.51000023  16.21999931  51.47999573
H    19.63999939  15.90000057  50.84000015
H    21.84999847  15.01999950  51.19999695
H    21.07000160  14.78999996  55.47999954
H    12.79000092  15.75000000  55.61999893
H    23.67000198  15.14000034  53.44999695
H    23.29999924  13.43000031  53.43999863
