96

S    12.58999920  16.69999886  44.09000015
C     9.94999981  17.13000107  44.79000092
C    11.21999931  16.76000023  45.17000198
C    11.51999950  16.31999969  46.45000076
C    10.55999947  16.13000107  47.41000366
C     9.17000008  16.46000099  47.05999756
C     8.14999962  16.28999901  48.06000137
C     6.85999966  16.77999878  47.80000305
C     6.57000017  17.18000031  46.40999603
C     7.57000017  17.34000015  45.40999985
C     8.90999985  17.00000000  45.73999786
C    12.93000031  16.13000107  46.65999985
C    13.60000038  16.35000038  45.45999908
C    15.00000000  16.29999924  45.40999985
C     5.13000011  17.60000038  46.18000031
H     4.70222044  17.04388618  45.34582901
H     9.77999973  17.48999977  43.76999664
H    10.80000019  15.82999992  48.43000031
H     8.43000031  16.01000023  49.06999969
H     6.00000000  16.68000031  48.46000290
H     7.31999969  17.71999931  44.41999817
H    15.55999947  16.47999954  44.50000000
H     4.65999985  17.31999969  47.11999893
H     4.97000027  18.68000031  46.07999802
S    16.06999969  15.53999996  49.13999939
C    18.68999863  15.18000031  48.43000031
C    17.43000031  15.57999992  48.06999969
C    17.07999992  15.88999939  46.72000122
C    18.09000015  16.18000031  45.79999924
C    19.40000153  15.86999989  46.11000061
C    20.43999863  15.88000107  45.13000107
C    21.77000046  15.44000053  45.45000076
C    22.03000069  14.89999962  46.76000214
C    20.95000076  14.85999966  47.67000198
C    19.68000031  15.31999969  47.39999771
C    15.65999985  15.95000076  46.53999710
C    14.94999981  15.71000004  47.76000214
C    13.53999996  15.80000019  47.83000183
C    23.36000061  14.39000034  47.25000000
H    23.66106033  14.86728954  48.18255615
H    18.86999893  14.77000046  49.41999817
H    17.88999939  16.51000023  44.79000092
H    20.17999840  16.10000038  44.09999847
H    22.53999901  15.36999893  44.68999863
H    21.02000046  14.42000008  48.66000366
H    13.04999924  15.50000000  48.75999832
H    24.04999924  14.63999939  46.44000244
H    23.44000053  13.28999996  47.30999756
S    12.01000023  16.90999985  50.79999924
C     9.32999992  17.60000038  51.39999771
C    10.55999947  17.01000023  51.77999878
C    10.90999985  16.59000015  53.15999985
C     9.94999981  16.67000008  54.08000183
C     8.61999989  17.06999969  53.72000122
C     7.59999990  17.01000023  54.68000031
C     6.30999994  17.40999985  54.38999939
C     6.00000000  17.86999893  53.04999924
C     7.00000000  17.89999962  52.01000214
C     8.30999947  17.50000000  52.41000366
C    12.27000046  16.21000099  53.33000183
C    13.09000015  16.46999931  52.22000122
C    14.47999954  16.45000076  52.19999695
C     4.51999998  18.06999969  52.70000076
H     4.16995430  17.45183372  51.87329865
H     9.10000038  18.04000092  50.43000031
H    10.13000011  16.39999962  55.12000275
H     7.81000042  16.67000008  55.68999863
H     5.51000023  17.53000069  55.12000275
H     6.76999998  18.17000008  50.98999786
H    15.07999992  16.46000099  51.30000305
H     3.84000015  17.89999962  53.54000092
H     4.36999989  19.11000061  52.41000366
S    15.31000042  15.43000031  55.91999817
C    18.04999924  15.36999893  55.47000122
C    16.77000046  15.55999947  55.00000000
C    16.51000023  15.97000027  53.67000198
C    17.54999924  16.02000046  52.77000046
C    18.90999985  15.81999969  53.25000000
C    19.95000076  15.75000000  52.29999924
C    21.25000000  15.43000031  52.69000244
C    21.42000008  15.11999989  54.03999710
C    20.43000031  15.08999920  55.00999832
C    19.13999939  15.43000031  54.59999847
C    15.10000038  16.14999962  53.40999985
C    14.27000046  15.81999969  54.55999756
C    12.88000011  15.88999939  54.51000214
C    22.82999992  14.80000019  54.43000031
H    23.11077309  15.29675198  55.35871124
H    18.20999908  15.08999920  56.51000214
H    17.32999992  16.21999931  51.72000122
H    19.61000061  15.77000046  51.26999664
H    22.10000038  15.36999893  52.02000046
H    20.59000015  14.91000080  56.06999969
H    12.27000046  15.77000046  55.40000153
H    23.42000008  15.08999920  53.54999924
H    22.88999939  13.71000099  54.52999878
