96

S    11.76000023  16.25000000  44.06999969
C     9.28999996  16.90999985  44.81999969
C    10.52000046  16.54000092  45.22999573
C    10.88999939  16.10000038  46.50000000
C     9.96999931  16.07999992  47.49000168
C     8.64999962  16.36000061  47.12999725
C     7.57999992  16.36000061  48.11999893
C     6.32999992  16.77000046  47.83000183
C     5.96000004  17.09000015  46.55000305
C     6.88000011  17.05999947  45.52999878
C     8.27999973  16.72999954  45.79000092
C    12.36999989  15.82999992  46.63000107
C    12.97999954  15.85000038  45.38999939
C    14.37999916  15.88000107  45.27999878
C     4.56999969  17.47999954  46.22000122
H     4.11130857  16.86146164  45.44856644
H     9.18000031  17.14999962  43.76999664
H    10.27999973  16.00000000  48.53000259
H     7.90000010  16.13999939  49.13000107
H     5.58000040  16.90999985  48.60000229
H     6.63999987  17.43000031  44.52999878
H    14.82999992  16.04999924  44.31000137
H     4.00000000  17.53000069  47.15999985
H     4.65999985  18.52000046  45.90000153
S    15.54999924  15.59000015  49.08000183
C    18.22999954  15.24000072  48.43000031
C    16.93000031  15.62999916  48.04999924
C    16.60000038  15.72999954  46.66999817
C    17.57999992  15.77000046  45.72000122
C    18.95000076  15.46000004  46.04999924
C    19.96999931  15.48999977  45.07999802
C    21.21999931  15.06999969  45.45999908
C    21.54999924  14.72000027  46.81999969
C    20.55999947  14.78999996  47.76000214
C    19.26000023  15.15999985  47.42000198
C    15.14999962  15.77000046  46.46999741
C    14.50000000  15.72000027  47.68000031
C    13.09999943  15.78999996  47.80000305
C    23.02000046  14.37000084  47.12999725
H    23.36062622  14.84965897  48.04760361
H    18.32999992  14.72000027  49.38000107
H    17.34000015  16.06999969  44.69999695
H    19.63999939  15.80999947  44.09999847
H    21.91999817  14.96000099  44.64000320
H    20.81999969  14.52999973  48.77999878
H    12.76000023  15.85999966  48.81999969
H    23.62999916  14.78000069  46.31000137
H    23.05999947  13.27999973  47.28000259
S    15.90000057  12.94000053  52.06999969
C    18.53000069  12.30999947  51.31000137
C    17.18000031  12.27000046  51.05999756
C    16.63999939  11.76000023  49.81999969
C    17.51000023  11.10000038  48.93000031
C    18.86000061  11.13000011  49.13000107
C    19.84000015  10.52000046  48.25000000
C    21.19999886  10.50000000  48.53000259
C    21.71999931  11.21999931  49.62999725
C    20.86999893  11.80999947  50.52999878
C    19.44000053  11.72000027  50.31999969
C    15.26000023  12.06999969  49.64000320
C    14.70999908  12.69000053  50.77000046
C    13.40000057  13.05999947  50.86000061
C    23.15000153  11.31000042  49.86000061
H    23.48804665  11.17892170  50.88793182
H    18.89999962  12.96000004  52.09999847
H    17.12000084  10.48999977  48.11999893
H    19.62000084   9.98000050  47.34000397
H    21.83000183  10.03999901  47.77999878
H    21.19999886  12.25000000  51.46999741
H    13.00000000  13.50000000  51.77000046
H    23.54000092  10.44000053  49.31999969
H    23.68000031  12.17000008  49.41999817
S    11.87000084  11.68000031  47.35000229
C     9.15999985  12.20999908  48.20000076
C    10.54999924  12.30999947  48.43000031
C    11.10999966  12.89999962  49.61999893
C    10.26000023  13.50999928  50.54999924
C     8.85000038  13.43999958  50.37000275
C     7.96999979  14.04999924  51.30000305
C     6.63999987  14.09999943  51.02000427
C     6.11000013  13.50000000  49.93999863
C     6.90999985  12.89999962  49.03999710
C     8.32999992  12.82999992  49.15999985
C    12.53000069  12.69999981  49.77000427
C    13.03999996  11.97000027  48.66000366
C    14.40000057  11.68000031  48.61999893
C     4.63000011  13.57999992  49.52000046
H     4.39965200  13.17689133  48.53382492
H     8.76000023  11.68000031  47.34000397
H    10.73999977  14.09000015  51.33999634
H     8.46000004  14.57999992  52.11999893
H     5.95000029  14.72000027  51.59999847
H     6.50000000  12.57999992  48.08000183
H    14.78999996  11.07999992  47.80000305
H     4.34999990  14.63999939  49.59000015
H     4.02999973  13.05999947  50.27999878
