96

S    12.09000015  16.88999939  44.22000122
C     9.46000004  17.11000061  45.01999664
C    10.75000000  16.79000092  45.27999878
C    11.13999939  16.42000008  46.63000107
C    10.11000061  16.21000099  47.62000275
C     8.73000050  16.47999954  47.27000427
C     7.65999985  16.46999931  48.18999863
C     6.40999985  16.84999847  47.85999680
C     6.17999983  17.38999939  46.58000183
C     7.23999977  17.60000038  45.72999954
C     8.47999954  16.95000076  45.94999695
C    12.57999992  16.38000107  46.73999786
C    13.23999977  16.61000061  45.52000046
C    14.60999966  16.36999893  45.45000076
C     4.76999998  17.87999916  46.25999832
H     4.42868710  17.39533615  45.34528351
H     9.22000027  17.64000130  44.09999847
H    10.38000011  15.88999939  48.61999893
H     7.88000011  16.22999954  49.22999954
H     5.69999981  17.00000000  48.66000366
H     7.03000021  18.20999908  44.86000061
H    15.06000042  16.31000137  44.47000122
H     4.07000017  17.75000000  47.11000061
H     4.74000025  18.96000099  46.11000061
S    15.72999954  15.25000000  49.09000015
C    18.37000084  14.96000099  48.36999893
C    17.05999947  15.25000000  47.97999954
C    16.79999924  15.73999977  46.65000153
C    17.78000069  15.71000004  45.70000076
C    19.07999992  15.19999981  45.98999786
C    20.17000008  15.26999950  45.06000137
C    21.44000053  15.14000034  45.51000214
C    21.68000031  14.82999992  46.84000015
C    20.65999985  14.72000027  47.71999741
C    19.34000015  14.88000011  47.34000397
C    15.39999962  16.05999947  46.59000015
C    14.72000027  15.85000038  47.84000015
C    13.30000019  15.95999908  47.90000153
C    23.09000015  14.47000027  47.29000092
H    23.39443970  15.05056095  48.16084290
H    18.67000008  14.70999908  49.38000107
H    17.59000015  16.13999939  44.72000122
H    20.00999832  15.60999966  44.03999710
H    22.26000023  15.21999931  44.80999756
H    20.90999985  14.46000004  48.75000000
H    12.69000053  15.65000057  48.74000168
H    23.78999901  14.60000038  46.45000076
H    23.12999916  13.43000031  47.62000275
S    11.98999977  16.95999908  51.13999939
C     9.34000015  17.25000000  51.88999939
C    10.59999943  16.79000092  52.22000122
C    10.97000027  16.42000008  53.54999924
C     9.92999935  16.40999985  54.51000214
C     8.65999985  16.86000061  54.19000244
C     7.64999962  16.81999969  55.18000031
C     6.38000011  17.18000031  54.81999969
C     6.01000023  17.45000076  53.48999786
C     6.98999977  17.54999924  52.54000092
C     8.34000015  17.28999901  52.88999939
C    12.41000080  16.39000130  53.72000122
C    13.07000065  16.73999977  52.50000000
C    14.44000053  16.69999886  52.32999802
C     4.59999990  17.94999886  53.23999786
H     4.23192549  17.44997406  52.34412003
H     9.11000061  17.50000000  50.86000061
H    10.29000092  16.15999985  55.50000000
H     7.92999983  16.45000076  56.17000198
H     5.59000015  17.25000000  55.56000137
H     6.84000015  17.86000061  51.51000214
H    14.88000011  16.72000122  51.33999634
H     3.89999986  17.73999977  54.06999969
H     4.65000010  19.04999924  53.18000031
S    15.60999966  15.77000046  56.07999802
C    18.23999977  15.26999950  55.27000046
C    16.97999954  15.76000023  54.99000168
C    16.68000031  16.28000069  53.68000031
C    17.69000053  16.32999992  52.77999878
C    18.97999954  15.90000057  53.06999969
C    19.96000099  15.73999977  52.04999924
C    21.21000099  15.29999924  52.34000397
C    21.54999924  14.82999992  53.68000031
C    20.59999847  14.89999962  54.65999985
C    19.25000000  15.36000061  54.33000183
C    15.18000031  16.46000099  53.50999832
C    14.52000046  16.25000000  54.79000092
C    13.09000015  16.21999931  54.91000366
C    23.02000046  14.57999992  54.05000305
H    23.24296570  15.06309223  55.00132370
H    18.44000053  14.78999996  56.23000336
H    17.46999931  16.46999931  51.72000122
H    19.59000015  16.04999924  51.06999969
H    21.80999947  15.19999981  51.44000244
H    20.82999992  14.63000107  55.68000031
H    12.53000069  16.03000069  55.81999969
H    23.68999863  14.86999989  53.22000122
H    23.11000061  13.52000046  54.29999924
