96

S    12.32999992  16.36999893  44.06000137
C     9.72999954  16.79000092  44.94999695
C    10.98000050  16.39000130  45.21999741
C    11.35000038  15.93000031  46.49000168
C    10.38000011  15.86999989  47.52999878
C     8.97000027  16.17000008  47.18999863
C     7.88999987  16.03000069  48.02000046
C     6.65999985  16.40999985  47.71999741
C     6.38000011  17.00000000  46.47999573
C     7.40999985  17.10000038  45.54000092
C     8.69999981  16.67000008  45.86999893
C    12.79000092  15.69000053  46.62000275
C    13.45000076  15.95999908  45.38000107
C    14.85999966  15.95000076  45.31999969
C     5.03000021  17.51000023  46.18999863
H     4.59346437  17.09458733  45.28172302
H     9.52999973  17.25000000  43.99000168
H    10.70000076  15.47999954  48.48999786
H     8.02999973  15.71000004  49.05000305
H     5.84999990  16.42000008  48.43999863
H     7.09999990  17.51000023  44.58000183
H    15.29000092  16.15999985  44.34000015
H     4.42999983  17.45000076  47.11000061
H     5.21000004  18.59000015  46.14999771
S    15.95999908  15.00000000  49.03999710
C    18.67000008  14.85000038  48.33000183
C    17.38999939  14.98000050  47.94000244
C    17.01000023  15.31000042  46.55000305
C    18.02999878  15.27999973  45.58000183
C    19.36000061  15.14000034  45.97999954
C    20.38000107  15.19999981  45.05000305
C    21.68000031  14.91000080  45.34000015
C    22.01000023  14.65000057  46.65999985
C    21.05999947  14.63999939  47.70000076
C    19.68000031  14.98000050  47.36000061
C    15.59000015  15.57000065  46.44000244
C    14.96999931  15.44000053  47.72999573
C    13.55000019  15.50000000  47.81000137
C    23.44000053  14.27999973  47.00000000
H    23.71473694  14.66462994  47.98218155
H    18.89999962  14.50000000  49.34000015
H    17.81999969  15.51000023  44.54000092
H    19.95000076  15.44999981  44.08000183
H    22.42000198  14.78000069  44.54999924
H    21.38000107  14.32000065  48.68999863
H    12.97999954  15.39000034  48.73000336
H    24.13000107  14.60000038  46.20999908
H    23.54999924  13.19000053  47.02000046
S    16.00000000  12.65999985  52.15000153
C    18.78000069  12.25999928  51.39999771
C    17.39999962  12.15999985  51.12999725
C    16.87000084  11.65999985  49.86000061
C    17.78000069  11.31000042  48.87000275
C    19.20999908  11.44000053  49.09999847
C    20.10000038  10.97000027  48.13000107
C    21.42999840  10.85000038  48.43999863
C    21.87000084  11.18000031  49.75999832
C    21.04999924  11.82000065  50.68000031
C    19.67000008  11.87999916  50.40999985
C    15.39999962  11.84000015  49.73999786
C    14.85999966  12.39999962  50.89000320
C    13.52000046  12.77999973  50.98999786
C    23.29000092  10.92000008  50.17000198
H    23.66959000  11.37121010  51.08674622
H    19.13999939  12.63000011  52.36000061
H    17.43999863  11.13000011  47.85999680
H    19.77000046  10.59999943  47.16999817
H    22.09000015  10.44000053  47.68000031
H    21.52000046  12.09000015  51.63000107
H    13.07999992  13.03999996  51.95000076
H    23.51000023   9.84000015  50.15999603
H    23.71000099  11.31000042  49.22999954
S    11.98999977  11.90000057  47.47000122
C     9.38000011  12.30999947  48.37999725
C    10.72999954  12.31999969  48.61999893
C    11.25000000  12.64999962  49.86999893
C    10.39000034  13.05999947  50.89000320
C     9.06999969  13.22999954  50.65999985
C     8.14999962  13.89000034  51.56000137
C     6.84000015  14.11999893  51.27999878
C     6.32999992  13.63000011  50.07999802
C     7.13000011  12.96000004  49.15999985
C     8.53999996  12.76999950  49.38999939
C    12.71000004  12.55000019  49.86999893
C    13.25000000  12.03999996  48.66000366
C    14.67000008  11.65999985  48.61000061
C     4.88000011  13.96000004  49.69999695
H     4.69958591  13.54655170  48.70772171
H     8.89999962  11.89000034  47.50000000
H    10.72999954  13.42000008  51.84999847
H     8.57999992  14.25000000  52.50000000
H     6.32999992  14.68999958  52.04999924
H     6.69000053  12.61000061  48.22999954
H    15.11000061  11.21999931  47.71999741
H     4.98000002  15.05000019  49.66999817
H     4.19000006  13.60999966  50.47999954
