96

S    11.94000053  16.47999954  44.27000046
C     9.38000011  16.81999969  45.20000076
C    10.64000034  16.43000031  45.41999817
C    11.03999996  16.05999947  46.75000000
C    10.03000069  15.92000008  47.72999573
C     8.73000050  16.23999977  47.43999863
C     7.68000031  16.01000023  48.34000015
C     6.38000011  16.28999901  48.09999847
C     6.03999996  16.92000008  46.84999847
C     7.05999947  17.27000046  45.97999954
C     8.38999939  16.82999992  46.17000198
C    12.46999931  15.98000050  46.81000137
C    13.14000034  16.29999924  45.61000061
C    14.47999954  16.21999931  45.44000244
C     4.53999996  17.19000053  46.45000076
H     4.35148954  16.97248840  45.39868927
H     9.21000004  17.32999992  44.25000000
H    10.38000011  15.51000023  48.68000031
H     8.05000019  15.57000065  49.27000046
H     5.60999966  15.88999939  48.76999664
H     6.94000006  17.79000092  45.02999878
H    15.01000023  16.23999977  44.48999786
H     3.94000006  16.62999916  47.16999817
H     4.32000017  18.26000023  46.56000137
S    15.67999935  15.14000034  49.05000305
C    18.34000015  14.68999958  48.27000046
C    17.07999992  15.18000031  47.94000244
C    16.72000122  15.54999924  46.58000183
C    17.70000076  15.72000027  45.63000107
C    18.97999954  15.31000042  46.00999832
C    20.05000114  15.40999985  45.08999634
C    21.31000137  15.07999992  45.51000214
C    21.59000015  14.53999996  46.73999786
C    20.62999916  14.42999935  47.62000275
C    19.32999992  14.77000046  47.29000092
C    15.26000023  15.77999973  46.52999878
C    14.55000019  15.53999996  47.76000214
C    13.19000053  15.57000065  47.88999939
C    23.01000214  14.30999947  47.12999725
H    23.37873268  14.75985241  48.05182648
H    18.47999954  14.13000011  49.20000076
H    17.48999977  15.97000027  44.59000015
H    19.88999939  15.65999985  44.03999710
H    22.18000031  15.36999893  44.92000198
H    20.88999939  14.26000023  48.66000366
H    12.58999920  15.29000092  48.75000000
H    23.68999863  14.52000046  46.29000092
H    23.12000084  13.22000027  47.16999817
S    11.90999985  16.68000031  50.97999954
C     9.30999947  16.79999924  51.66999817
C    10.55999947  16.36999893  52.01000214
C    10.82999992  15.92000008  53.33000183
C     9.82999992  15.88000107  54.27999878
C     8.56999969  16.44000053  53.94000244
C     7.50999975  16.54000092  54.89999771
C     6.26999950  17.02000046  54.58000183
C     5.95000029  17.39999962  53.25000000
C     6.94000006  17.31999969  52.25999832
C     8.27999973  16.84000015  52.58999634
C    12.30000019  15.81999969  53.47999954
C    12.97000027  16.17000008  52.28000259
C    14.37000084  16.18999863  52.28000259
C     4.53999996  17.71000099  52.83000183
H     4.15111589  17.08778572  52.02395248
H     9.09000015  17.29999924  50.72999954
H    10.01999950  15.60999966  55.31999969
H     7.76000023  16.13999939  55.87999725
H     5.42999983  17.04000092  55.27999878
H     6.65000010  17.40999985  51.20999908
H    14.89999962  16.52000046  51.38000107
H     3.88999987  17.43999863  53.68000031
H     4.33999968  18.75000000  52.55000305
S    15.57999992  15.11999989  55.91999817
C    18.32999992  15.26000023  55.31000137
C    17.02000046  15.52000046  54.95999908
C    16.62999916  15.85000038  53.61000061
C    17.61999893  15.95999908  52.63000107
C    18.94000053  15.54999924  52.95000076
C    19.84000015  15.34999943  51.90000153
C    21.11999893  14.89999962  52.23999786
C    21.51000023  14.59000015  53.56999969
C    20.61000061  14.77000046  54.50000000
C    19.29999924  15.24000072  54.27999878
C    15.14000034  15.85999966  53.43000031
C    14.46000004  15.47999954  54.59000015
C    13.05999947  15.57000065  54.61000061
C    23.03999901  14.26000023  53.85000229
H    23.33273697  14.58129597  54.84959030
H    18.51000023  14.81999969  56.29000092
H    17.48999977  16.21000099  51.58000183
H    19.50000000  15.42000008  50.86999893
H    21.83000183  14.68999958  51.45000076
H    20.88999939  14.59000015  55.52999878
H    12.55000019  15.42000008  55.54999924
H    23.64999962  14.70999908  53.04999924
H    23.19999886  13.19000053  53.66000366
