96

S    12.30999947  16.55999947  44.15000153
C     9.68999958  17.13000107  44.93999863
C    10.92000008  16.60000038  45.21999741
C    11.21000099  16.18000031  46.58000183
C    10.08999920  16.28000069  47.45999908
C     8.78999996  16.72999954  47.18000031
C     7.75000000  16.97000122  48.13999939
C     6.48000002  17.23999977  47.75000000
C     6.28000021  17.53000069  46.39999771
C     7.35000038  17.63000107  45.51000214
C     8.60999966  17.09000015  45.84999847
C    12.64999962  16.00000000  46.81000137
C    13.35999966  16.23999977  45.56000137
C    14.73000050  16.26000023  45.45000076
C     4.96000004  18.04999924  45.91999817
H     4.48140383  17.33578682  45.24996185
H     9.44999981  17.64000130  44.01000214
H    10.32999992  16.00000000  48.48999786
H     7.88000011  16.62999916  49.15999985
H     5.82999992  17.25000000  48.61999893
H     7.20000029  18.06999969  44.52999878
H    15.17000008  16.39000130  44.47000122
H     4.33999968  18.23999977  46.81000137
H     5.10999966  19.03000069  45.45999908
S    15.95999908  14.92000008  49.00000000
C    18.56999969  14.68999958  48.13000107
C    17.30999947  15.08999920  47.90000153
C    16.90999985  15.71000004  46.66999817
C    17.80999947  15.77000046  45.63000107
C    19.19999886  15.44999981  45.89000320
C    20.27000046  15.52999973  44.86999893
C    21.52000046  15.21000004  45.20999908
C    21.88999939  14.80999947  46.51000214
C    20.96999931  14.68999958  47.49000168
C    19.61000061  14.89999962  47.19999695
C    15.47000027  15.95000076  46.62000275
C    14.80000019  15.60999966  47.84000015
C    13.35000038  15.62999916  47.94000244
C    23.29000092  14.61999989  46.81999969
H    23.59381676  15.14661312  47.72469330
H    18.78000069  14.19999981  49.08000183
H    17.47999954  16.11999893  44.65999985
H    20.05000114  15.85000038  43.85000229
H    22.20000076  15.08999920  44.36999893
H    21.19999886  14.22000027  48.44999695
H    12.84999943  15.26999950  48.82999802
H    23.95999908  14.98000050  46.03000259
H    23.44000053  13.53999996  46.88999939
S    11.92000008  16.69999886  50.86000061
C     9.35999966  17.11000061  51.63999939
C    10.62999916  16.80999947  51.97000122
C    10.98999977  16.51000023  53.29000092
C    10.10000038  16.45000076  54.31999969
C     8.78999996  16.80999947  54.00000000
C     7.85000038  16.95000076  55.10000229
C     6.51999998  17.28999901  54.89999771
C     6.07999992  17.52000046  53.56999969
C     6.98000002  17.47999954  52.52999878
C     8.34000015  17.14999962  52.65999603
C    12.42000008  16.26000023  53.43000031
C    13.02999973  16.50000000  52.21000290
C    14.37999916  16.79000092  52.18000031
C     4.65000010  17.98999977  53.29999924
H     4.24004173  17.45281219  52.44474030
H     9.21000004  17.38999939  50.59999847
H    10.38000011  16.50000000  55.37000275
H     8.18000031  16.62999916  56.07999802
H     5.84999990  17.28000069  55.76000214
H     6.60000038  17.93000031  51.62000275
H    14.91000080  16.77000046  51.23000336
H     4.19000006  17.69000053  54.25000000
H     4.59000015  19.05999947  53.09000015
S    15.52999973  15.97000027  55.84999847
C    18.20000076  15.70000076  55.13000107
C    16.92000008  16.05999947  54.78000259
C    16.54999924  16.35000038  53.43000031
C    17.51000023  16.47999954  52.42000198
C    18.85000038  16.15999985  52.74000168
C    19.71999931  15.86999989  51.69000244
C    20.95999908  15.42000008  51.90000153
C    21.34000015  15.05000019  53.20999908
C    20.45999908  15.13000011  54.29000092
C    19.20999908  15.75000000  54.09999847
C    15.11000061  16.50000000  53.33000183
C    14.44000053  16.10999870  54.54000092
C    13.05999947  16.10999870  54.65000153
C    22.67000008  14.44000053  53.55999756
H    22.93819427  14.84934711  54.53396225
H    18.39999962  15.21999931  56.07999802
H    17.19000053  16.69000053  51.40999603
H    19.42000008  15.98000050  50.65000153
H    21.64999962  15.25000000  51.07999802
H    20.78000069  14.60000038  55.18000031
H    12.48999977  16.15999985  55.56999969
H    23.47999954  14.67000008  52.85999680
H    22.72000122  13.35000038  53.60000229
