96

S    12.28999996  16.44000053  44.27999878
C     9.77999973  17.01000023  45.05000305
C    10.97000027  16.50000000  45.38999939
C    11.32999992  16.03999901  46.73999786
C    10.29000092  15.90999985  47.63999939
C     9.02000046  16.40999985  47.31999969
C     7.95000029  16.35000038  48.23999786
C     6.63999987  16.60000038  47.83000183
C     6.34999990  17.13000107  46.59000015
C     7.36000013  17.43999863  45.73999786
C     8.75000000  16.97999954  46.03000259
C    12.76999950  15.92000008  46.88999939
C    13.47000027  16.09000015  45.59000015
C    14.78000069  16.07999992  45.45000076
C     4.98000002  17.65999985  46.24000168
H     4.51718521  17.06902122  45.44965744
H     9.63999939  17.35999870  44.02999878
H    10.38000011  15.32999992  48.55999756
H     8.01999950  15.93999958  49.25000000
H     5.92000008  16.45000076  48.62999725
H     7.09000015  18.11000061  44.93000031
H    15.26000023  16.23999977  44.48999786
H     4.44000006  17.73999977  47.18999863
H     5.18000031  18.70000076  45.93999863
S    16.05999947  15.81999969  49.15999985
C    18.60999870  15.13000011  48.41999817
C    17.35999870  15.67000008  48.08000183
C    16.94000053  15.82999992  46.72999954
C    17.93000031  15.76000023  45.76000214
C    19.23999977  15.47000027  46.04999924
C    20.25000000  15.29999924  45.08999634
C    21.50000000  14.84000015  45.34999847
C    21.87000084  14.52999973  46.72000122
C    20.89999962  14.57999992  47.67000198
C    19.61000061  15.06999969  47.37999725
C    15.53999996  16.00000000  46.58000183
C    14.85000038  16.07999992  47.85999680
C    13.52000046  15.92000008  48.09000015
C    23.31999969  14.32000065  47.14000320
H    23.61543083  14.90365505  48.01187897
H    18.77000046  14.75000000  49.41999817
H    17.56000137  15.86999989  44.73999786
H    19.90999985  15.36999893  44.06000137
H    22.07999992  14.50000000  44.50000000
H    21.17000198  14.30999947  48.68999863
H    13.01000023  15.85999966  49.05000305
H    24.04999924  14.50000000  46.33999634
H    23.39999962  13.25000000  47.41000366
S    16.10000038  13.20000076  52.22000122
C    18.71999931  12.56999969  51.45999908
C    17.38000107  12.42000008  51.29000092
C    16.90000153  11.84999943  50.06000137
C    17.78000069  11.44999981  49.09000015
C    19.17000008  11.56000042  49.22999954
C    20.06999969  10.95999908  48.34000015
C    21.35000038  10.93999958  48.68000031
C    21.88999939  11.51999950  49.85000229
C    21.00000000  12.20999908  50.72000122
C    19.62000084  12.15999985  50.47000122
C    15.44999981  12.23999977  49.89999771
C    14.91000080  12.84999943  51.03000259
C    13.57999992  13.07000065  51.18000031
C    23.23999786  10.98999977  50.27000046
H    23.45477867  11.31932640  51.28661728
H    19.11999893  12.86999893  52.42000198
H    17.39999962  11.13000011  48.11000061
H    19.68000031  10.40999985  47.48000336
H    21.93000031  10.27999973  48.02999878
H    21.28000069  12.64000034  51.66999817
H    13.17000008  13.48999977  52.09000015
H    23.22000122   9.89000034  50.27999878
H    24.04999924  11.18999958  49.55999756
S    12.18000031  12.23000050  47.54000092
C     9.55000019  12.61000061  48.34999847
C    10.85000038  12.68000031  48.66000366
C    11.30000019  12.92000008  49.97000122
C    10.39000034  13.28999996  50.98999786
C     9.07999992  13.35999966  50.65999985
C     8.22000027  13.80000019  51.69000244
C     6.84999990  13.81999969  51.38999939
C     6.38999987  13.60000038  50.10000229
C     7.23000002  13.10999966  49.09999847
C     8.63000011  13.01000023  49.34999847
C    12.75000000  12.74000072  50.11000061
C    13.32999992  12.36999989  48.96999741
C    14.61999989  12.05999947  48.76999664
C     4.96000004  13.86000061  49.75999832
H     4.67672777  13.52715492  48.76146317
H     9.26000023  12.20000076  47.38999939
H    10.77000046  13.68999958  51.93000031
H     8.55000019  14.09000015  52.68000031
H     6.19999981  14.27000046  52.14000320
H     6.86999989  12.84000015  48.11000061
H    15.03999901  11.56000042  47.90000153
H     4.80999994  14.93000031  49.89999771
H     4.36999989  13.40000057  50.56999969
