96

S    12.44999981  16.51000023  44.22999954
C     9.73999977  16.87000084  44.98000336
C    11.02000046  16.53000069  45.34999847
C    11.39000034  16.32999992  46.69000244
C    10.39999962  16.46000099  47.63999939
C     9.02000046  16.76000023  47.35000229
C     7.96999979  16.67000008  48.27999878
C     6.63999987  16.73999977  47.81999969
C     6.38000011  17.17000008  46.51000214
C     7.44000006  17.22999954  45.63000107
C     8.73999977  16.93000031  45.98999786
C    12.84000015  16.36000061  46.88000107
C    13.53999996  16.47999954  45.61000061
C    14.88999939  16.36000061  45.59000015
C     5.05999994  17.65999985  45.97999954
H     4.52987003  16.99375534  45.29942703
H     9.52000046  17.01000023  43.93000031
H    10.67999935  16.18000031  48.64999771
H     8.14999962  16.23999977  49.26000214
H     5.84999990  16.39000130  48.47000122
H     7.30000019  17.64999962  44.62999725
H    15.39000034  16.23999977  44.62999725
H     4.39000034  17.97000122  46.79000092
H     5.22000027  18.61999893  45.47000122
S    15.88000107  15.75000000  49.40000153
C    18.57999992  15.31000042  48.74000168
C    17.28999901  15.57999992  48.34000015
C    16.95999908  15.73999977  46.91999817
C    17.97000122  15.62000084  45.96000290
C    19.26000023  15.39000034  46.38999939
C    20.35000038  15.21999931  45.48999786
C    21.61000061  14.96000099  45.90999985
C    21.84000015  14.63999939  47.27000427
C    20.82999992  14.63999939  48.13999939
C    19.55999947  15.11000061  47.75000000
C    15.54999924  16.13999939  46.79000092
C    14.93999958  16.13999939  47.95999908
C    13.55999947  16.15999985  48.04999924
C    23.12000084  14.14999962  47.63000107
H    23.41667366  14.63032722  48.56240082
H    18.71000099  14.93000031  49.73999786
H    17.71999931  15.69000053  44.91000366
H    20.17000008  15.29999924  44.41999817
H    22.46999931  14.94999981  45.25000000
H    21.02999878  14.34999943  49.15999985
H    13.10999966  15.88000107  49.00000000
H    23.84000015  14.27999973  46.81999969
H    22.89999962  13.07999992  47.77000046
S    11.82000065  16.95999908  51.22000122
C     9.15999985  17.56000137  51.90999985
C    10.36000061  17.00000000  52.29999924
C    10.71000004  16.59000015  53.61999893
C     9.70000076  16.61000061  54.62999725
C     8.39999962  17.04000092  54.22999954
C     7.26000023  17.11000061  55.13000107
C     6.01999998  17.59000015  54.65000153
C     5.78999996  17.76000023  53.30999756
C     6.83000040  17.70000076  52.39999771
C     8.17000008  17.43000031  52.85999680
C    12.13999939  16.57999992  53.76999664
C    12.79999924  16.72999954  52.55000305
C    14.15999985  16.60000038  52.48000336
C     4.36999989  18.09999847  52.87000275
H     4.09431934  17.64295006  51.91963196
H     8.93999958  17.88999939  50.90000153
H    10.01000023  16.18000031  55.58000183
H     7.36999989  16.84999847  56.18000031
H     5.22000027  17.89999962  55.31999969
H     6.57999992  17.84000015  51.35000229
H    14.55999947  16.57999992  51.46999741
H     3.68999982  17.98999977  53.72000122
H     4.26999998  19.18000031  52.70999908
S    15.57000065  16.11999893  56.09000397
C    18.12999916  15.57000065  55.19000244
C    16.90000153  16.09000015  54.86999893
C    16.51000023  16.35000038  53.50999832
C    17.50000000  16.45000076  52.52999878
C    18.79999924  16.18000031  52.91999817
C    19.84000015  16.42000008  52.04999924
C    21.12999916  16.15999985  52.29999924
C    21.45999908  15.59999943  53.56999969
C    20.45999908  15.31999969  54.47000122
C    19.12999916  15.62999916  54.18000031
C    14.98999977  16.43000031  53.52000427
C    14.32999992  16.31999969  54.80999756
C    12.92000008  16.32999992  54.98000336
C    22.95999908  15.47999954  53.93000031
H    23.20507431  15.49485302  54.99198914
H    18.22000122  15.36000061  56.25000000
H    17.23999977  16.79999924  51.53999710
H    19.54000092  16.92000008  51.12999725
H    21.93000031  16.39999962  51.60999680
H    20.82999992  15.00000000  55.44000244
H    12.38000011  16.09000015  55.89000320
H    23.59999847  16.21999931  53.41999817
H    23.45000076  14.56999969  53.56999969
