96

S    12.01000023  16.88999939  44.20999908
C     9.39000034  17.46000099  45.10000229
C    10.62999916  16.90000153  45.34000015
C    11.02000046  16.50000000  46.68000031
C    10.03000069  16.40999985  47.63999939
C     8.67000008  16.87000084  47.38999939
C     7.64999962  16.86000061  48.33000183
C     6.34000015  17.23999977  48.04999924
C     6.07999992  17.81999969  46.76000214
C     7.09999990  17.90999985  45.86999893
C     8.38999939  17.38999939  46.10000229
C    12.44999981  16.31999969  46.79000092
C    13.10999966  16.51000023  45.59000015
C    14.47000027  16.53000069  45.43000031
C     4.67999983  18.04000092  46.22000122
H     4.41455793  17.36940956  45.40272141
H     9.15000057  17.87999916  44.13000107
H    10.27999973  15.86999989  48.54999924
H     7.96000004  16.43000031  49.27999878
H     5.50000000  17.07999992  48.72000122
H     6.89000034  18.22000122  44.85000229
H    14.92000008  16.68000031  44.45999908
H     3.97000027  18.04999924  47.04999924
H     4.63000011  19.06999969  45.81999969
S    15.73999977  15.59999943  49.03999710
C    18.31999969  15.07999992  48.20999908
C    17.13000107  15.57999992  48.00000000
C    16.76000023  16.06999969  46.70999908
C    17.73999977  16.14999962  45.79999924
C    19.10000038  15.77000046  46.06999969
C    20.22999954  16.02000046  45.25000000
C    21.48999977  15.38000011  45.50000000
C    21.68000031  14.78999996  46.81000137
C    20.69000053  14.84000015  47.69000244
C    19.37000084  15.15999985  47.29000092
C    15.32999992  16.29999924  46.52000046
C    14.68000031  16.03000069  47.70000076
C    13.34000015  16.14999962  47.85999680
C    23.09999847  14.34000015  47.21000290
H    23.51247215  14.99426651  47.97805405
H    18.39999962  14.65000057  49.20000076
H    17.51000023  16.59000015  44.82999802
H    20.05000114  16.72000122  44.43000031
H    22.36999893  15.47999954  44.86999893
H    20.86999893  14.55000019  48.70999908
H    12.86000061  16.28999901  48.81999969
H    23.78000069  14.42999935  46.35000229
H    23.05000114  13.30000019  47.56999969
S    16.18999863  13.14000034  51.97000122
C    18.81000137  12.25000000  51.32999802
C    17.50000000  12.51999950  50.97000122
C    17.02000046  12.03999996  49.68000031
C    17.94999886  11.56999969  48.76999664
C    19.26000023  11.44000053  49.08000183
C    20.13000107  11.05000019  48.01000214
C    21.52000046  11.10000038  48.22000122
C    22.04999924  11.50000000  49.43999863
C    21.18999863  11.90000057  50.45000076
C    19.77000046  11.84999943  50.34000015
C    15.55999947  12.28000069  49.51000214
C    15.01000023  12.76000023  50.72000122
C    13.73000050  13.14000034  50.79999924
C    23.57000160  11.30000019  49.72999954
H    23.77730560  11.67887115  50.73078918
H    19.19999886  12.72999954  52.22000122
H    17.61000061  11.13999939  47.83000183
H    19.71999931  10.85999966  47.02000046
H    22.18000031  10.67000008  47.47000122
H    21.47999954  12.23000050  51.44000244
H    13.38000107  13.55000019  51.73999786
H    23.75000000  10.22999954  49.56999969
H    24.17000008  11.67000008  48.88999939
S    12.18999958  12.25000000  47.22999954
C     9.56999969  12.71000004  48.22000122
C    10.95999908  12.71000004  48.37999725
C    11.46000004  13.21000004  49.58000183
C    10.62999916  13.55999947  50.65000153
C     9.21000004  13.61999989  50.52000046
C     8.34000015  14.15999985  51.56000137
C     7.03999996  14.40999985  51.24000168
C     6.52999973  13.82999992  50.01999664
C     7.35000038  13.23999977  49.10999680
C     8.75000000  13.15999985  49.29999924
C    12.90999985  13.07999992  49.66999817
C    13.38999939  12.46000099  48.43999863
C    14.70000076  12.07999992  48.41999817
C     5.13000011  14.15999985  49.58000183
H     4.88294458  13.83301544  48.56998062
H     9.11999989  12.27000046  47.32999802
H    11.06999969  13.81999969  51.60999680
H     8.75000000  14.51000023  52.50000000
H     6.39999962  15.01999950  51.86999893
H     6.98000002  12.88000011  48.15000153
H    15.11999989  11.76000023  47.48000336
H     5.01999950  15.25000000  49.64000320
H     4.51000023  13.57999992  50.27999878
