96

S    12.20999908  17.00000000  44.08000183
C     9.55999947  17.38000107  44.84000397
C    10.78999996  16.81999969  45.11000061
C    11.13999939  16.21999931  46.36000061
C    10.06999969  16.10000038  47.29999924
C     8.78000069  16.65999985  47.02999878
C     7.63999987  16.54999924  47.97999954
C     6.39999962  17.02000046  47.58999634
C     6.19999981  17.72999954  46.39999771
C     7.23999977  17.92000008  45.54000092
C     8.52999973  17.32999992  45.81999969
C    12.61000061  16.10999870  46.59000015
C    13.32999992  16.42000008  45.41999817
C    14.73999977  16.28999901  45.35999680
C     4.80999994  18.09000015  45.97999954
H     4.50893021  17.51523018  45.10416031
H     9.44999981  17.86999893  43.88000107
H    10.27999973  15.62000084  48.25000000
H     7.81000042  15.84000015  48.79000092
H     5.58000040  16.64999962  48.20000076
H     7.18999958  18.56999969  44.66999817
H    15.32999992  16.65999985  44.52000046
H     4.13999987  17.88999939  46.83000183
H     4.71000004  19.13999939  45.68999863
S    15.72000027  15.21999931  49.10999680
C    18.34000015  14.91000080  48.40000153
C    17.11000061  15.26000023  48.04000092
C    16.86000061  15.72000027  46.69000244
C    17.88999939  15.78999996  45.80999756
C    19.19000053  15.40999985  46.18999863
C    20.31999969  15.54999924  45.34000015
C    21.55999947  15.03999901  45.65000153
C    21.83000183  14.68000031  47.00000000
C    20.75000000  14.61999989  47.90000153
C    19.45999908  14.93000031  47.55000305
C    15.44999981  15.95999908  46.53999710
C    14.73999977  15.67999935  47.77000046
C    13.32999992  15.78999996  47.78999710
C    23.26000023  14.45000076  47.44999695
H    23.50731659  14.85277176  48.43219376
H    18.52000046  14.57999992  49.43000031
H    17.75000000  16.13000107  44.79000092
H    20.15000153  15.98999977  44.36000061
H    22.36999893  15.08999920  44.92000198
H    20.86999893  14.34999943  48.95000076
H    12.79999924  15.77000046  48.73000336
H    23.88999939  15.07999992  46.79999924
H    23.52999878  13.38999939  47.43999863
S    11.46999931  16.93000031  50.94999695
C     8.84000015  17.38000107  51.60999680
C    10.07999992  17.02000046  52.00000000
C    10.36000061  16.61999893  53.36999893
C     9.32999992  16.61999893  54.31999969
C     8.07999992  17.26000023  53.95999908
C     6.96000004  17.32999992  54.82999802
C     5.73000002  17.67000008  54.43999863
C     5.44000053  18.00000000  53.06999969
C     6.47000027  17.93000031  52.16999817
C     7.77999973  17.57999992  52.55000305
C    11.80999947  16.63999939  53.57999802
C    12.56000042  16.76000023  52.39999771
C    13.96999931  16.61999893  52.27000427
C     4.01999998  18.36000061  52.61000061
H     3.69222474  17.78995705  51.74068451
H     8.64999962  17.68000031  50.58000183
H     9.51000023  16.38000107  55.35999680
H     7.22000027  16.94000053  55.80999756
H     4.94000006  17.56000137  55.19000244
H     6.30000019  18.12999916  51.11999893
H    14.52000046  16.72000122  51.32999802
H     3.28000021  18.18000031  53.40000153
H     3.89999986  19.43000031  52.37999725
S    15.08999920  16.13000107  56.04999924
C    17.65999985  15.53999996  55.27000046
C    16.44000053  16.03000069  54.94999695
C    16.14999962  16.36999893  53.59000397
C    17.17000008  16.28999901  52.67000198
C    18.47999954  15.80000019  52.97000122
C    19.52999878  15.70000076  51.97000122
C    20.78000069  15.36000061  52.49000168
C    20.94000053  14.82999992  53.76999664
C    19.98999977  14.96000099  54.71000290
C    18.67000008  15.39000034  54.33000183
C    14.72000027  16.55999947  53.40999985
C    14.01000023  16.56999969  54.66999817
C    12.57999992  16.56999969  54.75000000
C    22.27000046  14.35999966  54.20000076
H    22.69630623  15.06585026  54.91283798
H    17.80999947  15.05000019  56.23000336
H    17.00000000  16.18999863  51.59999847
H    19.34000015  15.93000031  50.91999817
H    21.59000015  15.26999950  51.77000046
H    20.15000153  14.68999958  55.75000000
H    12.13000107  16.46999931  55.72999954
H    22.96999931  14.29999924  53.34999847
H    22.32999992  13.35000038  54.62999725
