96

S    12.35999966  16.70999908  44.27000046
C     9.88000011  16.94000053  45.06000137
C    11.05000019  16.48999977  45.37000275
C    11.39999962  15.93000031  46.59999847
C    10.36999893  15.84000015  47.50999832
C     9.06999969  16.36000061  47.22999954
C     7.96000004  16.23999977  48.06999969
C     6.65999985  16.53000069  47.77000046
C     6.46000004  17.12000084  46.53999710
C     7.53000021  17.35999870  45.68000031
C     8.84000015  16.93000031  46.00000000
C    12.84999943  15.84000015  46.75000000
C    13.50000000  16.29999924  45.58000183
C    14.86999989  16.21999931  45.47000122
C     5.10999966  17.70000076  46.22000122
H     4.68502998  17.17810822  45.36260605
H     9.72000027  17.28000069  44.03999710
H    10.39999962  15.40999985  48.50999832
H     8.13000011  15.64000034  48.95999908
H     5.93999958  16.39999962  48.56999969
H     7.27999973  17.79999924  44.72000122
H    15.39999962  16.34000015  44.52000046
H     4.51000023  17.72999954  47.14000320
H     5.22000027  18.72999954  45.87999725
S    16.05999947  14.86999989  49.09999847
C    18.60999870  14.57999992  48.27000046
C    17.36999893  14.88000011  47.95999908
C    17.02999878  15.44000053  46.69000244
C    18.04999924  15.52999973  45.76000214
C    19.34999847  15.11999989  46.07999802
C    20.39999962  15.19000053  45.12000275
C    21.70000076  15.03000069  45.54999924
C    21.98999786  14.46000004  46.79000092
C    21.02999878  14.22000027  47.70999908
C    19.70000076  14.65000057  47.36000061
C    15.64000034  15.80999947  46.59000015
C    14.98999977  15.52000046  47.78999710
C    13.60000038  15.57000065  47.85999680
C    23.36000061  14.14000034  47.14000320
H    23.61336708  14.51301384  48.13235855
H    18.76000023  14.22999954  49.29000092
H    17.79999924  15.82999992  44.75000000
H    20.22999954  15.62000084  44.13999939
H    22.50000000  15.39000034  44.89999771
H    21.14999962  13.73000050  48.67000198
H    13.07999992  15.24000072  48.75999832
H    24.07999992  14.45000076  46.38000107
H    23.50000000  13.05999947  47.28000259
S    12.10999966  16.84000015  50.90000153
C     9.56999969  17.48999977  51.60999680
C    10.76000023  17.05999947  52.02000046
C    11.13999939  16.69999886  53.31999969
C    10.11000061  16.64999962  54.22999954
C     8.76999950  16.94000053  53.88000107
C     7.71000004  16.65999985  54.69999695
C     6.38999987  17.02999878  54.38999939
C     6.15999985  17.67000008  53.13000107
C     7.20000029  17.86000061  52.23999786
C     8.52000046  17.46999931  52.55000305
C    12.55000019  16.50000000  53.52000427
C    13.22000027  16.57999992  52.27000427
C    14.55999947  16.34000015  52.12999725
C     4.73000002  18.22999954  52.78999710
H     4.28844976  17.61918831  52.00256729
H     9.40999985  17.71999931  50.56000137
H    10.32999992  16.23999977  55.20999908
H     7.86000013  16.25000000  55.68999863
H     5.58000040  16.69999886  55.01999664
H     7.07999992  18.38999939  51.30000305
H    15.01000023  16.38000107  51.14999771
H     4.00999975  18.18000031  53.61999893
H     4.86000013  19.29000092  52.54000092
S    15.67000008  15.65999985  55.86999893
C    18.35000038  15.36999893  55.18000031
C    17.05000114  15.70000076  54.80999756
C    16.72999954  16.05999947  53.41999817
C    17.73999977  16.05999947  52.45999908
C    19.07999992  15.77999973  52.83000183
C    20.12000084  15.62000084  51.84000015
C    21.37000084  15.25000000  52.25999832
C    21.64999962  15.01000023  53.64999771
C    20.62999916  14.86999989  54.56999969
C    19.31999969  15.39000034  54.20999908
C    15.29999924  16.18999863  53.33000183
C    14.55999947  16.03000069  54.59999847
C    13.15999985  16.10999870  54.68999863
C    23.05999947  14.67000008  54.09000015
H    23.37033653  15.25458717  54.95605469
H    18.52000046  15.07999992  56.20999908
H    17.51000023  16.06999969  51.39999771
H    19.88999939  15.84000015  50.79999924
H    22.25000000  15.25000000  51.62000275
H    20.89999962  14.44000053  55.52999878
H    12.68000031  15.80000019  55.61000061
H    23.81999969  14.77000046  53.30999756
H    22.92000008  13.61999989  54.38999939
