96

S    12.28000069  17.13000107  44.05000305
C     9.59000015  17.39999962  44.75000000
C    10.86999989  16.95000076  45.06999969
C    11.21999931  16.51000023  46.38999939
C    10.26000023  16.45000076  47.41000366
C     8.94999981  16.97999954  47.09999847
C     7.92999983  16.84999847  48.02000046
C     6.63000011  17.20000076  47.72999573
C     6.25999975  17.77000046  46.45000076
C     7.26999998  17.89999962  45.48999786
C     8.57999992  17.42000008  45.76000214
C    12.63000011  16.35000038  46.53999710
C    13.31999969  16.72000122  45.38999939
C    14.63000107  16.69999886  45.37000275
C     4.80999994  18.04999924  46.11000061
H     4.44169378  17.38982773  45.32474518
H     9.44000053  17.92000008  43.80000305
H    10.53999996  16.09000015  48.40000153
H     8.06999969  16.18000031  48.86000061
H     5.86000013  17.05000114  48.47999954
H     7.00000000  18.39999962  44.56999969
H    15.13000011  16.95999908  44.43999863
H     4.23000002  17.95999908  47.04000092
H     4.71000004  19.11000061  45.84000015
S    15.65000057  15.65999985  49.13000107
C    18.30000114  15.26000023  48.40999985
C    17.04000092  15.62000084  48.00000000
C    16.77000046  16.06999969  46.68000031
C    17.73999977  16.03000069  45.77999878
C    19.11000061  15.67000008  46.12999725
C    20.15000153  15.52000046  45.19000244
C    21.34000015  15.00000000  45.52999878
C    21.57999992  14.52999973  46.79999924
C    20.59999847  14.73999977  47.75000000
C    19.32999992  15.21999931  47.43999863
C    15.34000015  16.26000023  46.51000214
C    14.63999939  16.15999985  47.76000214
C    13.27999973  16.23999977  47.75000000
C    22.98000145  14.11000061  47.18000031
H    23.30226517  14.49671841  48.14679718
H    18.37000084  15.13000011  49.47999954
H    17.69000053  16.47999954  44.79000092
H    19.92000008  15.80999947  44.15999985
H    22.13999939  15.05000019  44.79999924
H    20.79999924  14.44000053  48.77999878
H    12.65999985  16.23999977  48.63999939
H    23.65999985  14.32000065  46.33999634
H    22.86999893  13.02000046  47.25000000
S    15.88000107  13.04999924  52.01000214
C    18.44000053  12.25000000  51.29000092
C    17.11000061  12.32999992  51.00999832
C    16.67000008  12.07999992  49.68999863
C    17.54999924  11.56999969  48.77999878
C    18.96000099  11.56999969  49.05000305
C    19.82999992  11.11999989  48.09000015
C    21.17000198  11.05999947  48.33000183
C    21.70000076  11.56000042  49.55999756
C    20.84000015  11.98999977  50.54000092
C    19.47999954  12.02000046  50.33000183
C    15.22999954  12.31999969  49.55999756
C    14.70999908  12.92000008  50.70999908
C    13.32999992  13.30999947  50.81999969
C    23.18000031  11.40999985  49.82999802
H    23.51574898  11.75289249  50.80867004
H    18.64999962  12.31999969  52.36000061
H    17.07999992  11.23999977  47.84999847
H    19.42000008  10.88999939  47.11000061
H    21.83000183  10.60999966  47.58999634
H    21.11999893  12.11999989  51.59000015
H    12.94999981  13.69999981  51.76000214
H    23.54000092  10.38000011  49.78000259
H    23.74000168  11.94000053  49.03999710
S    11.80999947  12.15999985  47.30999756
C     9.22999954  12.89000034  48.16999817
C    10.57000065  12.97999954  48.34999847
C    11.10999966  13.45000076  49.54000092
C    10.24000072  13.82999992  50.48999786
C     8.84000015  13.80000019  50.31000137
C     7.90999985  14.28999996  51.25999832
C     6.58999968  14.40999985  51.02000427
C     6.02999973  14.01000023  49.73999786
C     6.84000015  13.38000107  48.83999634
C     8.23999977  13.25000000  49.08000183
C    12.55000019  13.10999966  49.65999985
C    13.07999992  12.38000011  48.54000092
C    14.40999985  12.00000000  48.47000122
C     4.56999969  14.22000027  49.43999863
H     4.33236837  13.88582993  48.43006516
H     8.89999962  12.51000023  47.21000290
H    10.57999992  13.90999985  51.52000046
H     8.38999939  14.57999992  52.18999863
H     5.98000002  14.77000046  51.84000015
H     6.34999990  13.15999985  47.88999939
H    14.82999992  11.54999924  47.57999802
H     4.30000019  15.27999973  49.58000183
H     3.96000004  13.64999962  50.14999771
