96

S    12.28999996  17.20999908  44.51000214
C     9.61999989  17.48999977  45.15999603
C    10.86999989  16.97999954  45.45999908
C    11.10000038  16.40999985  46.72000122
C    10.08999920  16.21000099  47.67000198
C     8.80000019  16.72999954  47.43999863
C     7.68000031  16.69999886  48.31999969
C     6.47000027  17.26000023  47.95999908
C     6.21000004  17.79000092  46.63999939
C     7.27999973  17.84000015  45.81999969
C     8.59000015  17.40999985  46.13999939
C    12.48999977  16.14999962  46.97000122
C    13.28999996  16.61999893  45.84000015
C    14.63000107  16.56999969  45.90999985
C     4.82999992  18.18000031  46.07999802
H     4.53611469  17.45263481  45.32324600
H     9.30999947  17.84000015  44.18000031
H    10.34000015  15.77000046  48.62999725
H     7.78999996  16.15999985  49.25000000
H     5.65000010  16.84999847  48.54000092
H     7.04999971  18.17000008  44.80999756
H    15.26999950  16.76000023  45.05000305
H     4.19999981  18.09000015  46.97999954
H     4.86000013  19.26000023  45.87999725
S    15.47999954  15.29999924  49.51000214
C    18.12999916  14.86999989  48.76999664
C    16.88999939  15.31000042  48.50000000
C    16.61999893  15.95000076  47.18999863
C    17.70000076  16.10000038  46.30000305
C    18.98999977  15.59999943  46.59000015
C    20.06999969  15.65000057  45.70000076
C    21.32999802  15.32999992  46.05999756
C    21.54999924  14.70000076  47.31999969
C    20.50000000  14.47999954  48.23999786
C    19.22999954  14.98000050  47.84999847
C    15.22999954  16.21000099  47.06999969
C    14.47999954  15.84000015  48.18999863
C    13.09000015  15.73999977  48.09000015
C    22.95999908  14.15999985  47.67000198
H    23.41950226  14.69019604  48.50417709
H    18.40999985  14.42000008  49.72000122
H    17.53999901  16.61000061  45.34999847
H    19.92000008  16.17000008  44.75999832
H    22.20000076  15.44999981  45.41999817
H    20.65999985  14.04000092  49.22000122
H    12.57999992  15.52999973  49.02999878
H    23.57999992  14.09000015  46.77000046
H    22.80999947  13.12000084  48.00000000
S    15.80999947  13.02000046  52.44999695
C    18.46999931  12.38000011  51.72999954
C    17.07999992  12.27000046  51.44000244
C    16.61999893  11.84999943  50.14999771
C    17.53999901  11.61000061  49.15999985
C    18.94000053  11.64000034  49.43999863
C    19.85000038  11.09000015  48.55999756
C    21.15999985  10.78999996  48.87000275
C    21.65999985  11.18999958  50.14999771
C    20.79000092  11.72000027  51.13999939
C    19.43000031  12.01000023  50.75000000
C    15.18000031  11.94000053  50.01999664
C    14.63000107  12.58999920  51.18000031
C    13.31999969  13.05999947  51.20999908
C    23.02000046  10.81999969  50.47000122
H    23.39416695  11.28954411  51.37974167
H    18.75000000  12.48999977  52.77000046
H    17.21999931  11.16000080  48.22999954
H    19.52000046  10.78999996  47.56999969
H    21.77000046  10.21000004  48.18000031
H    21.02999878  11.76000023  52.19999695
H    12.90999985  13.50000000  52.11000061
H    23.18000031   9.75000000  50.68000031
H    23.57999992  11.16000080  49.59000015
S    11.89000034  12.03999996  47.56999969
C     9.25000000  12.74000072  48.29999924
C    10.59000015  12.63000011  48.61999893
C    11.11999989  13.09999943  49.89999771
C    10.26999950  13.75000000  50.76000214
C     8.85999966  13.71999931  50.43000031
C     7.94000053  14.14000034  51.45000076
C     6.57999992  14.23999977  51.12999725
C     6.06999969  13.85000038  49.79999924
C     6.96000004  13.22000027  48.89999771
C     8.39999962  13.27999973  49.19000244
C    12.51999950  12.79999924  50.10000229
C    13.07000065  12.20000076  48.95000076
C    14.44000053  11.75000000  48.89999771
C     4.59999990  14.09999943  49.40999985
H     4.40719318  13.87862873  48.36027527
H     8.85000038  12.27000046  47.41000366
H    10.53999996  14.13000011  51.73999786
H     8.36000061  14.44000053  52.39999771
H     5.93999958  14.73999977  51.84999847
H     6.65000010  12.93000031  47.90000153
H    14.96999931  11.46999931  48.00000000
H     4.48999977  15.18000031  49.56999969
H     3.82999992  13.66000080  50.06999969
