96

S    12.51999950  16.77000046  43.88000107
C     9.84000015  17.23999977  44.68000031
C    11.10999966  16.81999969  44.98000336
C    11.49000072  16.46000099  46.31000137
C    10.59999943  16.48999977  47.37999725
C     9.26999950  16.97000122  47.11999893
C     8.23999977  16.81999969  48.09999847
C     6.89000034  17.13999939  47.75000000
C     6.60000038  17.50000000  46.39999771
C     7.55999994  17.50000000  45.45000076
C     8.85999966  17.21999931  45.75000000
C    12.90999985  16.13999939  46.47999573
C    13.57999992  16.39000130  45.24000168
C    15.00000000  16.27000046  45.21999741
C     5.19999981  17.76000023  45.89000320
H     4.95796776  17.15146065  45.01868057
H     9.57999992  17.70000076  43.72000122
H    10.90000057  16.21000099  48.37999725
H     8.42000008  16.27000046  49.02000046
H     6.11999989  17.04000092  48.50999832
H     7.36000013  17.72999954  44.40999985
H    15.53999996  16.72999954  44.40000153
H     4.53999996  17.43000031  46.70000076
H     5.03000021  18.82999992  45.75000000
S    15.98000050  15.29999924  48.90999603
C    18.63999939  14.65000057  48.16999817
C    17.40999985  15.27999973  47.87000275
C    17.13000107  15.82999992  46.56000137
C    18.26000023  15.97000027  45.72000122
C    19.55000114  15.48999977  46.03000259
C    20.65999985  15.65999985  45.15999603
C    21.87999916  15.18000031  45.48999786
C    22.09000015  14.60000038  46.72000122
C    21.07000160  14.28999996  47.56999969
C    19.79999924  14.80000019  47.25999832
C    15.72000027  15.98000050  46.33999634
C    14.98999977  15.77000046  47.60000229
C    13.63000011  15.77000046  47.56999969
C    23.52000046  14.37999916  47.19999695
H    23.72313881  14.67419910  48.22969818
H    18.82999992  14.11999893  49.09999847
H    18.15999985  16.22999954  44.66999817
H    20.39999962  15.98000050  44.15000153
H    22.67999840  15.26000023  44.75999832
H    21.24000168  13.82999992  48.54000092
H    13.17000008  15.53999996  48.52000427
H    24.20999908  14.93000031  46.53999710
H    23.68999863  13.30000019  47.06999969
S    11.90000057  16.77000046  50.81999969
C     9.28999996  17.43000031  51.70999908
C    10.55999947  16.94000053  51.98999786
C    10.95999908  16.52000046  53.26000214
C     9.94999981  16.47999954  54.19000244
C     8.64000034  16.92000008  53.92000198
C     7.60999966  16.77999878  54.86999893
C     6.25999975  17.06999969  54.61000061
C     5.95000029  17.61000061  53.34000015
C     6.94999981  17.87999916  52.43999863
C     8.30000019  17.43000031  52.67000198
C    12.35000038  16.31999969  53.40000153
C    13.01000023  16.45000076  52.15999985
C    14.42000008  16.21999931  52.06999969
C     4.46999979  17.94999886  52.95999908
H     4.17142200  17.36012650  52.09339523
H     9.11999989  17.88999939  50.73999786
H    10.14000034  16.03999901  55.17000198
H     7.92999983  16.36999893  55.81999969
H     5.59000015  16.90999985  55.44000244
H     6.71000004  18.43000031  51.53999710
H    14.96999931  16.34000015  51.13999939
H     3.86000013  17.60000038  53.80000305
H     4.30999994  19.03000069  52.81000137
S    15.57000065  15.31000042  55.81999969
C    18.17000008  15.14000034  55.10000229
C    16.92000008  15.42000008  54.71000290
C    16.56999969  15.80999947  53.43000031
C    17.57999992  15.98999977  52.50999832
C    18.92000008  15.48999977  52.81000137
C    19.95000076  15.48999977  51.84999847
C    21.18000031  15.11999989  52.22000122
C    21.56999969  14.93999958  53.54999924
C    20.63999939  14.98000050  54.54000092
C    19.23999977  15.18000031  54.20999908
C    15.11000061  15.98000050  53.27999878
C    14.40999985  15.88000107  54.47999954
C    13.05999947  16.13000107  54.59000015
C    23.00000000  14.61999989  53.83999634
H    23.17871284  14.90593910  54.87652969
H    18.31999969  14.81999969  56.12999725
H    17.28000069  16.22999954  51.50000000
H    19.78000069  15.82999992  50.84000015
H    21.94000053  15.14999962  51.44000244
H    21.01000023  14.78000069  55.54999924
H    12.64000034  16.07999992  55.59000015
H    23.65999985  15.26000023  53.23999786
H    23.28000069  13.57999992  53.62999725
