96

S    12.06999969  16.84000015  44.20000076
C     9.47000027  17.30999947  44.93000031
C    10.67999935  16.68000031  45.20000076
C    11.02000046  16.17000008  46.47999573
C    10.11000061  16.10000038  47.49000168
C     8.82999992  16.73999977  47.29999924
C     7.82999992  16.69999886  48.30999756
C     6.54999971  17.27000046  48.00000000
C     6.28000021  17.94000053  46.79000092
C     7.30999994  18.01000023  45.83000183
C     8.56000042  17.38000107  46.03000259
C    12.46999931  16.05999947  46.70000076
C    13.15000057  16.28999901  45.44000244
C    14.53999996  16.35000038  45.37000275
C     4.81999969  18.25000000  46.29000092
H     4.53588009  17.57088470  45.48614883
H     9.34000015  17.89999962  44.02000046
H    10.27999973  15.40999985  48.31999969
H     8.06999969  16.17000008  49.22999954
H     5.71000004  17.15999985  48.68000031
H     7.11000013  18.37000084  44.81999969
H    15.01000023  16.69000053  44.45000076
H     4.13999987  18.09999847  47.14000320
H     4.55000019  19.29000092  46.03000259
S    15.65999985  15.32999992  49.13000107
C    18.27999878  14.96999931  48.41999817
C    17.02000046  15.36999893  48.02000046
C    16.72000122  15.72000027  46.65000153
C    17.71000099  15.65000057  45.72999954
C    19.04999924  15.27999973  46.17000198
C    20.09000015  15.11000061  45.20000076
C    21.35999870  14.75999928  45.59000015
C    21.59000015  14.48999977  46.97000122
C    20.55999947  14.42000008  47.84999847
C    19.29999924  14.92000008  47.50999832
C    15.27999973  15.95999908  46.51000214
C    14.60999966  15.72000027  47.77000046
C    13.19000053  15.75000000  47.84000015
C    23.00000000  14.19999981  47.47000122
H    23.26515388  14.74503803  48.37594223
H    18.39999962  14.50000000  49.38999939
H    17.45000076  15.57999992  44.66999817
H    19.84000015  15.19000053  44.13999939
H    22.07999992  14.60000038  44.79999924
H    20.76999855  14.09999943  48.87000275
H    12.65999985  15.55999947  48.76999664
H    23.64000130  14.57999992  46.65999985
H    23.09000015  13.10999966  47.43999863
S    15.76000023  12.86000061  52.23999786
C    18.36000061  12.17000008  51.50000000
C    17.07999992  12.28000069  51.14999771
C    16.60000038  11.90000057  49.87999725
C    17.53000069  11.40999985  49.00000000
C    18.93000031  11.35000038  49.27999878
C    19.86999893  10.90999985  48.34999847
C    21.18999863  10.86999989  48.64999771
C    21.65999985  11.31999969  49.91000366
C    20.73999786  11.72000027  50.83000183
C    19.34000015  11.77999973  50.54000092
C    15.21999931  12.13000107  49.75000000
C    14.60999966  12.65999985  50.90999985
C    13.23999977  13.09000015  50.97000122
C    23.09999847  11.13999939  50.18000031
H    23.39757347  11.48008347  51.17191315
H    18.68999863  12.44999981  52.50000000
H    17.14999962  11.06999969  48.04000092
H    19.56999969  10.52999973  47.36999893
H    21.90000153  10.52000046  47.90999985
H    21.04999924  12.02000046  51.81999969
H    12.89999962  13.63000011  51.84999847
H    23.38000107  10.10000038  50.00999832
H    23.59999847  11.78999996  49.45000076
S    11.68000031  12.00000000  47.45999908
C     9.13000011  12.76000023  48.30999756
C    10.43000031  12.53999901  48.55999756
C    10.97000027  12.94000053  49.80999756
C    10.17000008  13.30000019  50.84999847
C     8.82999992  13.63000011  50.61999893
C     7.92999983  14.30999947  51.43000031
C     6.61000013  14.56999969  51.11999893
C     6.03999996  13.90999985  49.98000336
C     6.84999990  13.28999996  49.08000183
C     8.23999977  13.28999996  49.29999924
C    12.46000099  12.77999973  49.86999893
C    12.98999977  12.23000050  48.69999695
C    14.37999916  11.84000015  48.67000198
C     4.59999990  14.18000031  49.62999725
H     4.48207235  13.90252399  48.58252335
H     8.75000000  12.43000031  47.34000397
H    10.67000008  13.63000011  51.76000214
H     8.25000000  14.72000027  52.38999939
H     6.01999998  15.08999920  51.86000061
H     6.51999998  12.86999893  48.13000107
H    14.78999996  11.39999962  47.76000214
H     4.40000010  15.24000072  49.82999802
H     3.89999986  13.60999966  50.25000000
