96

S    12.17000008  16.45000076  44.29999924
C     9.55000019  16.72999954  44.99000168
C    10.77999973  16.27000046  45.30000305
C    11.05999947  15.84000015  46.59000015
C    10.01000023  15.60999966  47.43000031
C     8.67000008  16.01000023  47.18000031
C     7.59999990  15.90000057  48.08000183
C     6.38000011  16.42000008  47.74000168
C     6.21000004  16.97999954  46.46999741
C     7.20000029  17.09000015  45.54999924
C     8.47999954  16.61000061  45.90000153
C    12.51000023  15.62999916  46.65000153
C    13.22000027  15.98999977  45.54000092
C    14.60000038  15.97000027  45.41999817
C     4.78999996  17.48999977  46.12999725
H     4.44842052  17.01597023  45.20982361
H     9.48999977  17.48999977  44.22000122
H    10.26999950  15.36000061  48.44999695
H     7.72000027  15.36999893  49.02000046
H     5.55000019  16.40999985  48.44999695
H     7.05999947  17.43999863  44.52999878
H    15.05000019  16.07999992  44.43999863
H     4.07999992  17.29999924  46.95000076
H     4.85000038  18.56999969  45.97000122
S    15.72000027  14.85000038  49.02000046
C    18.38999939  14.68999958  48.40000153
C    17.11000061  15.06999969  48.01000214
C    16.81999969  15.40999985  46.65999985
C    17.80999947  15.52000046  45.75000000
C    19.13999939  15.11999989  46.03000259
C    20.20999908  14.98999977  45.12000275
C    21.42999840  14.42000008  45.38000107
C    21.63999939  13.99000072  46.72999954
C    20.62999916  14.04999924  47.67000198
C    19.40000153  14.65000057  47.39999771
C    15.39999962  15.54999924  46.53999710
C    14.67000008  15.14000034  47.70999908
C    13.26000023  15.14999962  47.77000046
C    22.96999931  13.50000000  47.14000320
H    23.22691536  14.16798019  47.96213150
H    18.60999870  14.23999977  49.36000061
H    17.57999992  15.88999939  44.75000000
H    20.07999802  15.50000000  44.16999817
H    22.27000046  14.52999973  44.71000290
H    20.95000076  13.78999901  48.68000031
H    12.69000053  14.73000050  48.59000397
H    23.77000046  13.60999966  46.39999771
H    22.98999977  12.43999958  47.42000198
S    15.78999996  12.50000000  52.19999695
C    18.54999924  12.00000000  51.52000046
C    17.18000031  12.00000000  51.16000366
C    16.77000046  11.61999893  49.80999756
C    17.72999954  11.31000042  48.87000275
C    19.05999947  11.25000000  49.27000046
C    19.98999977  10.57000065  48.44999695
C    21.25000000  10.34999943  48.85000229
C    21.77000046  10.85000038  50.08999634
C    20.82999992  11.31999969  51.02000427
C    19.48999977  11.54999924  50.61000061
C    15.29999924  11.71000004  49.68000031
C    14.65999985  12.10999966  50.89000320
C    13.30999947  12.38000011  50.91999817
C    23.28000069  10.69000053  50.31999969
H    23.56856155  11.05598259  51.30533600
H    18.82999992  12.25999928  52.52999878
H    17.53000069  10.98000050  47.85999680
H    19.76000023  10.06000042  47.50999832
H    21.93000031   9.94999981  48.09999847
H    20.94000053  11.51000023  52.08000183
H    12.79000092  12.77999973  51.77000046
H    23.45000076   9.61000061  50.20000076
H    23.75000000  11.23000050  49.50000000
S    12.10000038  11.67000008  47.15000153
C     9.43000031  12.17000008  48.01000214
C    10.73999977  12.15000057  48.29000092
C    11.21999931  12.39999962  49.59999847
C    10.38000011  12.84000015  50.56000137
C     8.98999977  12.97999954  50.28999710
C     8.19000053  13.60999966  51.26999664
C     6.84000015  13.68000031  51.00999832
C     6.28000021  13.32999992  49.79999924
C     7.02000046  12.76000023  48.81999969
C     8.46000004  12.65999985  49.00000000
C    12.63000011  12.17000008  49.71000290
C    13.22000027  11.72999954  48.50999832
C    14.55999947  11.47999954  48.48999786
C     4.77999973  13.48999977  49.61000061
H     4.57802248  13.20146084  48.57847214
H     9.03999996  11.94000053  47.02000046
H    10.76000023  13.09000015  51.55000305
H     8.67000008  13.89000034  52.19999695
H     6.19000006  13.94000053  51.84000015
H     6.65999985  12.43000031  47.84999847
H    15.15999985  11.19999981  47.63000107
H     4.48000002  14.52999973  49.78000259
H     4.26999998  12.82999992  50.31999969
