96

S    12.34000015  16.95000076  44.45999908
C     9.68999958  17.35999870  45.08999634
C    10.95999908  16.94000053  45.52999878
C    11.23999977  16.35000038  46.79000092
C    10.22999954  16.29999924  47.68000031
C     8.92000008  16.75000000  47.31999969
C     7.86999989  16.68000031  48.20000076
C     6.58999968  17.23999977  47.95000076
C     6.30000019  17.70000076  46.65000153
C     7.36999989  17.82999992  45.75000000
C     8.64999962  17.29999924  46.04000092
C    12.67000008  16.06999969  46.91999817
C    13.40999985  16.36000061  45.73999786
C    14.75000000  16.44000053  45.70999908
C     4.92000008  18.20999908  46.24000168
H     4.54120398  17.60249519  45.41808319
H     9.50000000  17.67000008  44.06999969
H    10.39999962  15.80999947  48.63999939
H     8.01000023  16.32999992  49.22000122
H     5.86999989  17.31999969  48.75000000
H     7.18999958  18.36000061  44.80999756
H    15.29000092  16.77000046  44.82999802
H     4.13999987  18.09000015  47.00000000
H     4.94999981  19.27000046  45.94999695
S    15.82999992  15.14999962  49.38000107
C    18.53000069  14.77000046  48.59000397
C    17.20999908  15.14999962  48.27999878
C    16.84000015  15.75000000  47.00000000
C    17.86000061  16.03000069  46.11999893
C    19.13999939  15.53999996  46.38000107
C    20.12000084  15.75000000  45.38999939
C    21.40999985  15.46000004  45.63000107
C    21.78999901  14.80000019  46.86000061
C    20.86999893  14.47000027  47.81000137
C    19.50000000  14.84000015  47.63000107
C    15.44000053  15.95999908  46.86999893
C    14.70999908  15.60999966  48.06000137
C    13.34000015  15.65000057  48.06999969
C    23.22000122  14.46000004  47.15000153
H    23.48436356  14.86671352  48.12611389
H    18.75000000  14.40999985  49.59000015
H    17.67000008  16.46999931  45.13999939
H    19.70000076  16.25000000  44.52000046
H    22.17000008  15.69000053  44.88999939
H    21.11000061  13.81999969  48.63999939
H    12.81000042  15.32999992  48.96999741
H    23.88999939  14.84000015  46.37000275
H    23.28000069  13.36999989  47.08000183
S    16.04999924  12.56000042  52.35000229
C    18.67000008  11.77000046  51.66999817
C    17.32999992  11.82999992  51.33999634
C    16.80999947  11.39000034  50.07999802
C    17.65999985  10.93999958  49.09999847
C    19.04000092  10.77999973  49.34999847
C    19.92000008  10.34999943  48.36999893
C    21.27000046  10.36999893  48.68999863
C    21.83000183  10.77999973  49.93000031
C    20.90999985  11.30000019  50.81999969
C    19.51000023  11.31000042  50.61000061
C    15.39000034  11.84000015  49.88999939
C    14.86999989  12.43000031  51.02000427
C    13.56999969  12.93000031  51.14999771
C    23.31000137  10.71000004  50.27999878
H    23.57169533  11.06364250  51.27727127
H    18.96000099  12.23999977  52.60000229
H    17.29999924  10.65000057  48.11000061
H    19.52999878  10.29000092  47.36000061
H    21.97000122  10.21999931  47.87000275
H    21.30000114  11.69000053  51.76000214
H    13.20000076  13.31999969  52.09000015
H    23.54000092   9.63999939  50.24000168
H    23.92000008  11.13000011  49.47000122
S    12.10999966  12.20000076  47.50000000
C     9.44000053  12.81999969  48.34000015
C    10.80000019  12.69000053  48.61999893
C    11.35000038  12.97999954  49.89999771
C    10.44999981  13.45999908  50.86000061
C     9.09000015  13.47000027  50.65000153
C     8.19000053  13.93000031  51.65000153
C     6.83000040  14.11999893  51.37000275
C     6.34999990  13.89999962  50.04000092
C     7.22000027  13.45000076  49.06999969
C     8.55000019  13.15000057  49.36000061
C    12.79000092  12.81999969  49.94999695
C    13.35000038  12.28000069  48.75999832
C    14.68999958  11.87999916  48.68999863
C     4.96000004  14.14000034  49.61999893
H     4.64912510  13.56885815  48.74521255
H     9.13999939  12.50000000  47.34000397
H    10.71000004  13.73999977  51.88000107
H     8.56999969  14.34999943  52.57999802
H     6.19000006  14.67000008  52.05999756
H     6.89000034  13.31999969  48.04000092
H    15.24000072  11.59999943  47.80000305
H     4.79999971  15.21000004  49.43999863
H     4.30000019  14.00000000  50.47999954
