96

S    12.30999947  16.77999878  44.27999878
C     9.67000008  17.40999985  44.92000198
C    10.85999966  16.79999924  45.28999710
C    11.13000011  16.40999985  46.63999939
C    10.08999920  16.47999954  47.56000137
C     8.82999992  16.95999908  47.21000290
C     7.75000000  16.90000153  48.13999939
C     6.50000000  17.27000046  47.78999710
C     6.28000021  17.89999962  46.52999878
C     7.40000010  18.12000084  45.70000076
C     8.64999962  17.56000137  45.91999817
C    12.58999920  16.20000076  46.79000092
C    13.30999947  16.29999924  45.61000061
C    14.68000031  16.28000069  45.47000122
C     4.92000008  18.27000046  46.04000092
H     4.57192326  17.57384682  45.27690887
H     9.59000015  17.79000092  43.89999771
H    10.11000061  15.95000076  48.50999832
H     7.92999983  16.38000107  49.08000183
H     5.68000031  17.09000015  48.47999954
H     7.26000023  18.65999985  44.77000427
H    15.17000008  16.36999893  44.51000214
H     4.26999998  18.25000000  46.93000031
H     4.99000025  19.27999878  45.63000107
S    15.82999992  15.78999996  49.15999985
C    18.50000000  15.47999954  48.44999695
C    17.19000053  15.80999947  48.09999847
C    16.84000015  16.06999969  46.75000000
C    17.84000015  16.13000107  45.75000000
C    19.15999985  15.86999989  46.10000229
C    20.17999840  15.59000015  45.05000305
C    21.40999985  15.11999989  45.43000031
C    21.73999977  14.98999977  46.79999924
C    20.78000069  15.14999962  47.81000137
C    19.45999908  15.57000065  47.44999695
C    15.38000011  16.03000069  46.66999817
C    14.63999939  15.88999939  47.90000153
C    13.28999996  15.95999908  47.98999786
C    23.15000153  14.55000019  47.25000000
H    23.49314690  15.08530998  48.13532257
H    18.68999863  15.01000023  49.41999817
H    17.53000069  16.27000046  44.71000290
H    19.98999977  15.70000076  43.99000168
H    22.15999985  14.93999958  44.66999817
H    20.95000076  15.03999901  48.87000275
H    12.69000053  15.84000015  48.88999939
H    23.81000137  14.63000107  46.38000107
H    23.12999916  13.50000000  47.55000305
S    11.89000034  17.20000076  50.93999863
C     9.22999954  17.25000000  51.58000183
C    10.51000023  17.02000046  51.97000122
C    10.80000019  16.59000015  53.26000214
C     9.82999992  16.43000031  54.20999908
C     8.51000023  16.81999969  53.92000198
C     7.53999996  16.97000122  54.94999695
C     6.30999994  17.48999977  54.71000290
C     5.97000027  17.68000031  53.36999893
C     6.90999985  17.57999992  52.36000061
C     8.21000004  17.20000076  52.56999969
C    12.22000027  16.56999969  53.43999863
C    12.96000004  16.94000053  52.29000092
C    14.32999992  17.20999908  52.34000397
C     4.56999969  18.02000046  52.97000122
H     4.22071362  17.62794304  52.01480865
H     8.93999958  17.63000107  50.61000061
H    10.19999981  16.18000031  55.20000076
H     7.85000038  16.77999878  55.97000122
H     5.61999989  17.86000061  55.45999908
H     6.67000008  17.90999985  51.35000229
H    14.78000069  17.45000076  51.38000107
H     3.81999993  17.77000046  53.72000122
H     4.46999979  19.11999893  52.97000122
S    15.43000031  15.76000023  55.90999985
C    18.01000023  15.50000000  55.19000244
C    16.80999947  15.93000031  54.88999939
C    16.52000046  16.55999947  53.64999771
C    17.47999954  16.61999893  52.67000198
C    18.73999977  16.10000038  52.87000275
C    19.86999893  16.13000107  51.95000076
C    21.07999992  15.60999966  52.16999817
C    21.31000137  15.17000008  53.46000290
C    20.29000092  15.11999989  54.45000076
C    19.00000000  15.51000023  54.22000122
C    15.03999901  16.92000008  53.53000259
C    14.34999943  16.45000076  54.68000031
C    12.92000008  16.46999931  54.65999985
C    22.73999977  14.96000099  53.90999603
H    22.98255348  15.28102684  54.92301559
H    18.12999916  15.05000019  56.17000198
H    17.28000069  16.98999977  51.66999817
H    19.78000069  16.76000023  51.06999969
H    21.91999817  15.77000046  51.50000000
H    20.35000038  14.70999908  55.45000076
H    12.39999962  16.21000099  55.56999969
H    23.40999985  15.50000000  53.22999954
H    23.01000214  13.93000031  53.63999939
