96

S    12.15999985  16.72999954  44.25000000
C     9.53999996  16.93000031  45.00000000
C    10.77999973  16.54000092  45.34000015
C    11.05999947  16.03000069  46.65000153
C    10.07999992  15.98000050  47.63000107
C     8.80000019  16.51000023  47.28000259
C     7.71000004  16.35000038  48.20000076
C     6.47000027  16.84000015  47.75000000
C     6.24000025  17.56000137  46.51000214
C     7.26000023  17.59000015  45.56999969
C     8.48999977  17.02999878  45.94999695
C    12.55000019  15.90999985  46.77999878
C    13.25000000  16.07999992  45.63999939
C    14.65999985  16.02000046  45.52999878
C     4.77999973  17.84000015  46.13999939
H     4.53165007  17.35709763  45.19489288
H     9.28999996  17.12000084  43.95999908
H    10.11000061  15.38000011  48.53000259
H     7.81000042  15.78999996  49.13000107
H     5.60999966  16.43000031  48.27000046
H     7.03000021  17.81999969  44.54000092
H    15.14000034  16.39000130  44.62999725
H     4.13000011  17.48999977  46.95000076
H     4.61999989  18.92000008  46.10000229
S    15.78999996  14.94999981  49.22000122
C    18.47999954  14.78999996  48.39000320
C    17.19000053  15.14000034  48.13000107
C    16.79000092  15.54999924  46.75000000
C    17.80999947  15.67999935  45.80999756
C    19.11999893  15.26000023  46.11000061
C    20.17999840  15.40999985  45.17000198
C    21.42000008  15.03000069  45.52000046
C    21.78999901  14.46000004  46.75000000
C    20.76999855  14.35999966  47.70999908
C    19.44000053  14.78999996  47.38999939
C    15.38000011  15.72999954  46.65000153
C    14.63999939  15.44999981  47.84000015
C    13.27000046  15.59000015  47.94000244
C    23.15000153  14.02999973  46.97999954
H    23.59145546  14.46444702  47.87692261
H    18.70000076  14.55000019  49.43000031
H    17.56999969  16.06999969  44.81999969
H    19.97999954  15.98000050  44.26000214
H    22.20999908  15.31000042  44.84000397
H    20.98999977  13.93000031  48.68000031
H    12.71999931  15.46000004  48.87000275
H    23.74000168  14.26000023  46.09000397
H    23.15000153  12.93000031  46.97999954
S    16.04999924  12.43000031  52.70000076
C    18.71000099  11.71000004  51.88999939
C    17.38000107  11.82999992  51.59999847
C    16.90999985  11.59000015  50.30000305
C    17.79999924  11.28000069  49.29000092
C    19.14999962  11.16000080  49.52999878
C    20.06000137  10.70000076  48.57999802
C    21.35000038  10.31999969  48.95000076
C    21.84999847  10.69000053  50.24000168
C    20.98999977  11.33999920  51.09000397
C    19.64999962  11.38000011  50.83000183
C    15.44999981  11.80999947  50.17000198
C    14.88999939  12.38999939  51.37000275
C    13.57999992  12.82999992  51.42000198
C    23.28000069  10.39000034  50.59000015
H    23.62698364  10.70806980  51.57312393
H    19.19000053  11.89000034  52.84999847
H    17.40999985  11.33999920  48.27000046
H    19.68000031  10.57999992  47.56999969
H    21.97000122   9.80000019  48.22999954
H    21.25999832  11.44999981  52.12999725
H    13.05999947  13.12000084  52.32999802
H    23.44000053   9.30999947  50.51000214
H    23.92000008  10.78999996  49.79000092
S    12.13999939  11.78999996  47.87000275
C     9.44999981  12.46000099  48.54999924
C    10.81999969  12.38000011  48.88000107
C    11.28999901  12.71999931  50.20999908
C    10.38000011  13.17999935  51.11999893
C     9.06000042  13.32999992  50.86999893
C     8.14999962  13.82999992  51.83000183
C     6.80000019  13.96000004  51.59999847
C     6.37000036  13.63999939  50.26000214
C     7.17000008  12.98999977  49.36000061
C     8.56000042  12.82999992  49.54000092
C    12.76000023  12.63000011  50.30000305
C    13.32999992  12.07999992  49.13000107
C    14.60000038  11.72999954  49.00000000
C     4.97000027  13.96999931  49.93000031
H     4.68297148  13.56098461  48.96127701
H     9.11999989  12.10000038  47.57999802
H    10.77999973  13.53999996  52.06999969
H     8.60000038  14.25000000  52.72999573
H     6.07999992  14.37999916  52.29000092
H     6.63000011  12.63000011  48.47999954
H    14.96000099  11.25000000  48.09000015
H     4.96000004  15.06999969  49.86000061
H     4.36999989  13.61999989  50.77999878
