96

S    12.22000027  17.43999863  44.22000122
C     9.52000046  17.47999954  44.87999725
C    10.76000023  17.13000107  45.21999741
C    11.11999989  16.43000031  46.46999741
C    10.11999989  16.07999992  47.29000092
C     8.80999947  16.53000069  47.02999878
C     7.69999981  16.31999969  47.88999939
C     6.44000006  16.64999962  47.58999634
C     6.10000038  17.38999939  46.45000076
C     7.11000013  17.56000137  45.56999969
C     8.46000004  17.17000008  45.79000092
C    12.55000019  16.57999992  46.70999908
C    13.25000000  16.95999908  45.58000183
C    14.63000107  16.84000015  45.56999969
C     4.67999983  17.78000069  46.13999939
H     4.31095457  17.20110512  45.29336548
H     9.44000053  18.09000015  43.97999573
H    10.26000023  15.46000004  48.16999817
H     7.85000038  15.93999958  48.89999771
H     5.59000015  16.46000099  48.23999786
H     6.94999981  18.06999969  44.61999893
H    15.19999981  17.28999901  44.75999832
H     4.07999992  17.71000099  47.05999756
H     4.73000002  18.81999969  45.79000092
S    15.60999966  15.29999924  49.13999939
C    18.32999992  15.03000069  48.39000320
C    17.05000114  15.53999996  48.15000153
C    16.77000046  16.10999870  46.86999893
C    17.79999924  16.36000061  45.96000290
C    19.13999939  15.93999958  46.18000031
C    20.22999954  16.11999893  45.28999710
C    21.44000053  15.51000023  45.54000092
C    21.70999908  15.03999901  46.86000061
C    20.63999939  14.89999962  47.76000214
C    19.37999916  15.39999962  47.45999908
C    15.39000034  16.35000038  46.68000031
C    14.65999985  15.98999977  47.87000275
C    13.25000000  16.05999947  47.84999847
C    23.11000061  14.72000027  47.21000290
H    23.47753525  15.22445965  48.10361481
H    18.55999947  14.28999996  49.15000153
H    17.48999977  16.90999985  45.06999969
H    20.05000114  16.65999985  44.36000061
H    22.27999878  15.55999947  44.85000229
H    20.79000092  14.40999985  48.70999908
H    12.69000053  15.71000004  48.70999908
H    23.77000046  14.98000050  46.37000275
H    23.18000031  13.64999962  47.43000031
S    16.21000099  13.17999935  52.22999954
C    18.82999992  12.38999939  51.51000214
C    17.46000099  12.35000038  51.23000336
C    16.95000076  11.87999916  49.99000168
C    17.85000038  11.43000031  49.01000214
C    19.27000046  11.51999950  49.16999817
C    20.22999954  11.09000015  48.23999786
C    21.57999992  11.09000015  48.47999954
C    21.98999786  11.42000008  49.79000092
C    21.11000061  12.00000000  50.66999817
C    19.76000023  11.96000004  50.47000122
C    15.46000004  12.28000069  49.86999893
C    14.96999931  12.86999893  51.03000259
C    13.63999939  13.21000004  51.16000366
C    23.38999939  11.05999947  50.20999908
H    23.67918587  11.41971684  51.19745636
H    19.31999969  12.76999950  52.39999771
H    17.46000099  11.05000019  48.06000137
H    19.84000015  10.59000015  47.35000229
H    22.17000008  10.47999954  47.78999710
H    21.42999840  12.34000015  51.65000153
H    13.21000004  13.47000027  52.12999725
H    23.47999954   9.96999931  50.19000244
H    24.07999992  11.43000031  49.43999863
S    12.07999992  12.36999989  47.60000229
C     9.39000034  12.58999920  48.60000229
C    10.78999996  12.75000000  48.73000336
C    11.33999920  13.28999996  49.89999771
C    10.47000027  13.78000069  50.90999985
C     9.06999969  13.78000069  50.77000046
C     8.19999981  14.22999954  51.77999878
C     6.80000019  14.22000027  51.52999878
C     6.28000021  13.75000000  50.31999969
C     7.16000032  13.22999954  49.38000107
C     8.55000019  13.17999935  49.58000183
C    12.81000042  13.09999943  50.00999832
C    13.35000038  12.61999989  48.81000137
C    14.63999939  12.17000008  48.67000198
C     4.80999994  14.04999924  49.99000168
H     4.52297211  13.64098454  49.02127838
H     9.03999996  12.17000008  47.65999603
H    10.84000015  13.96999931  51.90999985
H     8.50000000  14.40000057  52.81000137
H     6.17000008  14.72000027  52.25999832
H     6.76000023  12.84999943  48.44999695
H    14.98000050  11.84999943  47.69000244
H     4.86000013  15.14999962  49.91000366
H     4.15999985  13.68999958  50.79000092
