96

S    12.22000027  17.13000107  44.48999786
C     9.64999962  17.05999947  44.99000168
C    10.86999989  16.81999969  45.47999954
C    11.18999958  16.39999962  46.83000183
C    10.06999969  16.20000076  47.65999603
C     8.75000000  16.44000053  47.19999695
C     7.72000027  16.61000061  48.13999939
C     6.48000002  17.00000000  47.75000000
C     6.25000000  17.34000015  46.42000198
C     7.28999996  17.38999939  45.54000092
C     8.52999973  16.87000084  45.84000015
C    12.63000011  16.28999901  47.02000046
C    13.36999989  16.65999985  45.83000183
C    14.80000019  16.63999939  45.80999756
C     4.88000011  17.75000000  45.97999954
H     4.49932289  17.06917381  45.21864319
H     9.50000000  17.79000092  44.20000076
H    10.40999985  16.04999924  48.68000031
H     8.00000000  16.54999924  49.19000244
H     5.84000015  17.40999985  48.52000427
H     7.17000008  17.86000061  44.55999756
H    15.29000092  16.72999954  44.84000397
H     4.18000031  17.64000130  46.81000137
H     4.81999969  18.78999901  45.63000107
S    15.85999966  15.46000004  49.45999908
C    18.47999954  15.19000053  48.81000137
C    17.22999954  15.59999943  48.47000122
C    16.87999916  16.03999901  47.16999817
C    17.94000053  16.18999863  46.23000336
C    19.26000023  15.81999969  46.52999878
C    20.23999977  15.78999996  45.56999969
C    21.48999977  15.26000023  45.75000000
C    21.84000015  14.86999989  47.05999756
C    20.81999969  14.75999928  48.02999878
C    19.51000023  15.22999954  47.83000183
C    15.50000000  16.28000069  47.00000000
C    14.70999908  15.90999985  48.11999893
C    13.31999969  15.82999992  48.11999893
C    23.23999786  14.46000004  47.35000229
H    23.64071274  14.97520256  48.22298050
H    18.63999939  14.52999973  49.65000153
H    17.70000076  16.36999893  45.19000244
H    19.85000038  16.09000015  44.59999847
H    22.11999893  15.15999985  44.87999725
H    21.07000160  14.37999916  49.02000046
H    12.84000015  15.47000027  49.02000046
H    23.88999939  14.77000046  46.52000046
H    23.25000000  13.36999989  47.43000031
S    16.15999985  12.60000038  52.11000061
C    18.70000076  12.25000000  51.25000000
C    17.36999893  12.15000057  50.94999695
C    16.77000046  11.79999924  49.66999817
C    17.68000031  11.40999985  48.75999832
C    19.11999893  11.28000069  49.09999847
C    20.02000046  10.73999977  48.11999893
C    21.34000015  10.52000046  48.36999893
C    21.87000084  11.03000069  49.61000061
C    21.05999947  11.72000027  50.51000214
C    19.64999962  11.78999996  50.26000214
C    15.29999924  11.94000053  49.65000153
C    14.84000015  12.43000031  50.91999817
C    13.52000046  12.79000092  51.12999725
C    23.35000038  10.72999954  49.88999939
H    23.66955376  11.04245090  50.88416290
H    19.04999924  12.38999939  52.27000427
H    17.35999870  11.31000042  47.72999573
H    19.47999954  10.47999954  47.21000290
H    21.97000122  10.05000019  47.62000275
H    21.38999939  12.10000038  51.46999741
H    13.02999973  13.17000008  52.02000046
H    23.42000008   9.63999939  49.77000427
H    23.97000122  11.18999958  49.10999680
S    11.92999935  12.31999969  47.43000031
C     9.31999969  12.64000034  48.31999969
C    10.64000034  12.53999901  48.61000061
C    11.18000031  12.74000072  49.93999863
C    10.31000042  13.02000046  50.98999786
C     8.97000027  13.35999966  50.66999817
C     8.05000019  13.93000031  51.65000153
C     6.76999998  14.26000023  51.26999664
C     6.30999994  13.94000053  49.93000031
C     7.17999983  13.48999977  49.06000137
C     8.47000027  13.14000034  49.36000061
C    12.60000038  12.60000038  49.98000336
C    13.15999985  12.42000008  48.68000031
C    14.47999954  12.03999996  48.50999832
C     4.92000008  14.32999992  49.54000092
H     4.64982748  13.98362446  48.54243851
H     8.98999977  12.56999969  47.29000092
H    10.72000027  13.25000000  51.97000122
H     8.40999985  14.15999985  52.64999771
H     6.17000008  14.81999969  51.95999908
H     6.90999985  13.42000008  48.01000214
H    14.85999966  11.69000053  47.55000305
H     4.99000025  15.42000008  49.45000076
H     4.21999979  13.89999962  50.27000046
