96

S    12.32999992  16.36999893  44.06000137
C     9.72999954  16.79000092  44.94999695
C    10.98000050  16.39000130  45.21999741
C    11.35000038  15.93000031  46.49000168
C    10.38000011  15.86999989  47.52999878
C     8.97000027  16.17000008  47.18999863
C     7.88999987  16.03000069  48.02000046
C     6.65999985  16.40999985  47.71999741
C     6.38000011  17.00000000  46.47999573
C     7.40999985  17.10000038  45.54000092
C     8.69999981  16.67000008  45.86999893
C    12.79000092  15.69000053  46.62000275
C    13.45000076  15.95999908  45.38000107
C    14.85999966  15.95000076  45.31999969
C     5.03000021  17.51000023  46.18999863
H     4.59346437  17.09458733  45.28172302
H     9.52999973  17.25000000  43.99000168
H    10.70000076  15.47999954  48.48999786
H     8.02999973  15.71000004  49.05000305
H     5.84999990  16.42000008  48.43999863
H     7.09999990  17.51000023  44.58000183
H    15.29000092  16.15999985  44.34000015
H     4.42999983  17.45000076  47.11000061
H     5.21000004  18.59000015  46.14999771
S    15.95999908  15.00000000  49.03999710
C    18.67000008  14.85000038  48.33000183
C    17.38999939  14.98000050  47.94000244
C    17.01000023  15.31000042  46.55000305
C    18.02999878  15.27999973  45.58000183
C    19.36000061  15.14000034  45.97999954
C    20.38000107  15.19999981  45.05000305
C    21.68000031  14.91000080  45.34000015
C    22.01000023  14.65000057  46.65999985
C    21.05999947  14.63999939  47.70000076
C    19.68000031  14.98000050  47.36000061
C    15.59000015  15.57000065  46.44000244
C    14.96999931  15.44000053  47.72999573
C    13.55000019  15.50000000  47.81000137
C    23.44000053  14.27999973  47.00000000
H    23.71473694  14.66462994  47.98218155
H    18.89999962  14.50000000  49.34000015
H    17.81999969  15.51000023  44.54000092
H    19.95000076  15.44999981  44.08000183
H    22.42000198  14.78000069  44.54999924
H    21.38000107  14.32000065  48.68999863
H    12.97999954  15.39000034  48.73000336
H    24.13000107  14.60000038  46.20999908
H    23.54999924  13.19000053  47.02000046
S    11.94000053  16.76000023  51.04999924
C     9.31999969  16.95000076  51.81000137
C    10.53999996  16.59000015  52.11999893
C    10.90000057  16.26000023  53.44999695
C     9.94000053  16.29999924  54.47000122
C     8.60000038  16.57999992  54.10999680
C     7.59999990  16.62999916  55.08999634
C     6.28999996  16.93000031  54.68999863
C     5.93999958  17.46999931  53.37999725
C     6.96000004  17.52000046  52.43999863
C     8.26000023  16.95000076  52.77999878
C    12.30999947  15.92000008  53.53000259
C    13.04999924  16.18000031  52.32999802
C    14.45000076  16.21000099  52.21000290
C     4.55999994  17.92000008  53.00000000
H     4.20259809  17.43393326  52.09219742
H     9.15999985  17.40999985  50.84000015
H    10.26000023  16.28000069  55.51000214
H     7.77999973  16.39000130  56.13999939
H     5.47999954  16.98999977  55.40999985
H     6.78999996  17.97999954  51.46999741
H    14.93000031  16.46000099  51.26999664
H     3.89999986  17.63000107  53.82999802
H     4.61999989  19.00000000  52.88000107
S    15.59999943  15.59999943  56.11000061
C    18.22999954  15.17000008  55.40999985
C    16.95999908  15.65999985  55.01999664
C    16.61999893  15.84000015  53.61999893
C    17.64000130  15.90000057  52.70000076
C    18.96000099  15.50000000  53.11000061
C    20.02000046  15.47999954  52.15999985
C    21.25999832  14.92000008  52.41000366
C    21.54999924  14.52999973  53.67000198
C    20.59999847  14.55999947  54.68000031
C    19.25000000  15.05000019  54.41999817
C    15.21000004  15.98000050  53.41999817
C    14.50000000  15.80000019  54.62999725
C    13.05999947  15.72000027  54.64000320
C    22.90999985  14.04000092  53.99000168
H    23.33470345  14.65581894  54.78277969
H    18.29000092  14.75000000  56.40999603
H    17.36999893  16.10000038  51.65999985
H    19.76000023  15.85000038  51.17000198
H    22.11000061  14.81999969  51.73999786
H    20.86999893  14.22000027  55.66999817
H    12.48999977  15.53999996  55.54000092
H    23.44000053  14.28999996  53.06000137
H    22.86999893  12.97999954  54.27000046
