96

S    12.46000099  17.18000031  44.20999908
C     9.70000076  17.61000061  44.95999908
C    10.98999977  17.11000061  45.22999573
C    11.33999920  16.61000061  46.45999908
C    10.29000092  16.31999969  47.35000229
C     8.94999981  16.77000046  47.05999756
C     7.81000042  16.55999947  47.95000076
C     6.61000013  17.13000107  47.74000168
C     6.43000031  17.92000008  46.53999710
C     7.44000006  18.02000046  45.66999817
C     8.71999931  17.56000137  45.90999985
C    12.77999973  16.43000031  46.72999954
C    13.52000046  16.60000038  45.52000046
C    14.84000015  16.43000031  45.51000214
C     5.03999996  18.39999962  46.18999863
H     4.61852789  17.68564034  45.48278427
H     9.44999981  17.84000015  43.93000031
H    10.55999947  15.77000046  48.25000000
H     7.97999954  16.06999969  48.89999771
H     5.79999971  17.18000031  48.46000290
H     7.30000019  18.27000046  44.61999893
H    15.39999962  16.65999985  44.59999847
H     4.41000032  18.38000107  47.09000015
H     4.97000027  19.34000015  45.63000107
S    15.76000023  15.52000046  49.29000092
C    18.54999924  15.22999954  48.64999771
C    17.23999977  15.57999992  48.30999756
C    16.88999939  15.90000057  46.93000031
C    17.93000031  15.95000076  46.04000092
C    19.20999908  15.40999985  46.31999969
C    20.23999977  15.42000008  45.30000305
C    21.55999947  15.10000038  45.63999939
C    21.80000114  14.61999989  46.91999817
C    20.84000015  14.60000038  47.94000244
C    19.47999954  15.00000000  47.63000107
C    15.46000004  16.10999870  46.75000000
C    14.75000000  15.86999989  47.93000031
C    13.38999939  15.90999985  47.93000031
C    23.25000000  14.57999992  47.29000092
H    23.47010422  15.13025951  48.20480728
H    18.78000069  15.06999969  49.69999695
H    17.75000000  16.27000046  45.01999664
H    20.03000069  15.85999966  44.33000183
H    22.37999916  15.26999950  44.94999695
H    21.07000160  14.46000004  48.99000168
H    12.77999973  15.43000031  48.68999863
H    23.95000076  14.88999939  46.51000214
H    23.47999954  13.53000069  47.51999664
S    16.09000015  12.46000099  52.25999832
C    18.73999977  12.18000031  51.70999908
C    17.43999863  12.07999992  51.24000168
C    17.05999947  11.90000057  49.91000366
C    18.09000015  11.67000008  49.03999710
C    19.38999939  11.69000053  49.43999863
C    20.46999931  11.33999920  48.59000397
C    21.77999878  11.39000034  49.00000000
C    22.11000061  11.73999977  50.27999878
C    21.14000130  12.00000000  51.12999725
C    19.76000023  11.92000008  50.79999924
C    15.57000065  12.10999966  49.66999817
C    14.96999931  12.46000099  50.90000153
C    13.68000031  12.86999893  51.03000259
C    23.51000023  12.05999947  50.68000031
H    23.82467651  11.49221802  51.55561447
H    18.95000076  12.43000031  52.74000168
H    17.79000092  11.47999954  48.01000214
H    20.29999924  11.00000000  47.56999969
H    22.53000069  11.26000023  48.22999954
H    21.38000107  12.44999981  52.09000015
H    13.21000004  12.89000034  52.01000214
H    24.15999985  11.90000057  49.80999756
H    23.68999863  13.09999943  50.97000122
S    12.20999908  12.22000027  47.48000336
C     9.55999947  12.90999985  48.23999786
C    10.93999958  12.79000092  48.55999756
C    11.40999985  13.05999947  49.86000061
C    10.52999973  13.45999908  50.83000183
C     9.15999985  13.60000038  50.48999786
C     8.27000046  14.04000092  51.47999573
C     7.00999975  14.30999947  51.09000397
C     6.38999987  14.09000015  49.86000061
C     7.21000004  13.53000069  48.88999939
C     8.63000011  13.27999973  49.18000031
C    12.84000015  12.88000011  49.89999771
C    13.43000031  12.23999977  48.70999908
C    14.72000027  11.84999943  48.54000092
C     4.94000006  14.37000084  49.59999847
H     4.58318758  13.94764996  48.66063309
H     9.27999973  12.69999981  47.21000290
H    10.90999985  13.64999962  51.84000015
H     8.71000004  14.18000031  52.45999908
H     6.37000036  14.85999966  51.77999878
H     6.72999954  13.40000057  47.91999817
H    15.14999962  11.44999981  47.63000107
H     4.71000004  15.44000053  49.59000015
H     4.35999966  13.94000053  50.43000031
