96

S    12.51000023  16.31000137  44.15999985
C     9.90999985  17.10000038  45.10000229
C    11.14999962  16.59000015  45.30000305
C    11.49000072  16.20000076  46.66999817
C    10.52999973  16.10000038  47.67000198
C     9.22000027  16.50000000  47.36999893
C     8.17000008  16.25000000  48.31999969
C     6.80999994  16.50000000  47.97000122
C     6.52999973  17.09000015  46.72000122
C     7.51999950  17.30999947  45.80999756
C     8.89000034  17.02999878  46.05999756
C    12.93000031  16.03999901  46.77999878
C    13.60999966  15.97000027  45.51000214
C    15.01999950  15.98999977  45.38999939
C     5.07999992  17.35000038  46.25999832
H     4.80046606  16.73208427  45.40668869
H     9.53999996  17.39999962  44.13000107
H    10.77999973  15.92000008  48.70999908
H     8.50000000  15.69000053  49.18000031
H     5.98000002  16.10000038  48.53000259
H     7.37999964  17.63000107  44.79000092
H    15.52999973  16.05999947  44.43000031
H     4.46000004  17.14999962  47.14000320
H     4.92000008  18.42000008  46.05999756
S    16.10999870  15.15999985  49.15000153
C    18.82999992  14.91000080  48.47999954
C    17.53999901  15.29999924  48.11000061
C    17.20999908  15.71000004  46.76000214
C    18.22999954  15.65000057  45.72999954
C    19.60000038  15.39999962  46.14999771
C    20.69000053  15.40999985  45.15999603
C    21.87999916  14.85000038  45.47000122
C    22.11000061  14.46000004  46.84000015
C    21.14999962  14.52999973  47.81999969
C    19.82999992  14.96999931  47.51999664
C    15.75000000  15.84000015  46.60999680
C    15.03999901  15.62000084  47.84000015
C    13.68000031  15.78999996  47.93000031
C    23.46999931  13.99000072  47.22000122
H    23.73042679  14.42638969  48.18428421
H    18.98999977  14.42999935  49.43999863
H    18.02000046  15.75000000  44.66999817
H    20.43999863  15.67000008  44.13000107
H    22.70999908  14.63000107  44.81999969
H    21.14000130  14.30999947  48.88000107
H    13.27000046  15.71000004  48.93000031
H    24.26000214  14.29999924  46.52000046
H    23.52000046  12.89999962  47.22999954
S    11.79999924  16.70999908  50.89000320
C     9.10000038  17.00000000  51.60999680
C    10.36000061  16.56999969  51.95999908
C    10.72999954  16.26000023  53.27999878
C     9.72000027  16.29999924  54.23999786
C     8.43000031  16.73999977  53.93000031
C     7.37999964  16.79000092  54.89999771
C     6.11999989  17.17000008  54.55999756
C     5.84999990  17.56000137  53.18999863
C     6.83000040  17.57999992  52.25000000
C     8.10999966  17.15999985  52.58999634
C    12.23000050  16.26000023  53.43999863
C    12.92000008  16.42000008  52.22999954
C    14.30999947  16.39999962  52.16999817
C     4.46000004  18.09000015  52.84999847
H     4.01597738  17.51206589  52.03948212
H     8.86999989  17.46000099  50.65000153
H     9.89999962  15.92000008  55.24000168
H     7.63999987  16.54000092  55.93000031
H     5.33999968  17.22999954  55.31000137
H     6.56000042  17.77000046  51.20999908
H    14.85999966  16.34000015  51.24000168
H     3.89999986  17.94000053  53.77999878
H     4.53999996  19.18000031  52.70999908
S    15.50000000  15.75000000  55.86999893
C    18.06999969  15.26999950  55.07999802
C    16.81999969  15.64000034  54.73999786
C    16.46000099  15.95999908  53.43999863
C    17.46999931  16.03999901  52.48000336
C    18.81000137  15.80000019  52.77999878
C    19.84000015  15.95999908  51.90000153
C    21.09000015  15.47999954  52.12999725
C    21.35999870  14.96999931  53.44999695
C    20.40999985  14.94999981  54.41999817
C    19.11999893  15.39000034  54.09999847
C    15.08999920  16.18000031  53.27999878
C    14.44000053  16.17000008  54.54000092
C    12.98999977  16.18999863  54.65000153
C    22.76000023  14.47000027  53.81999969
H    23.02403641  14.98417664  54.74412537
H    18.30000114  14.86999989  56.06999969
H    17.17000008  16.26000023  51.45999908
H    19.54000092  16.21999931  50.89000320
H    21.73999977  15.29999924  51.27999878
H    20.50000000  14.60000038  55.44000244
H    12.56000042  16.10999870  55.65000153
H    23.47999954  14.68000031  53.02000046
H    22.79000092  13.42000008  54.15000153
