96

S    11.95000076  17.04000092  44.29999924
C     9.48000050  17.68000031  45.02999878
C    10.62000084  17.14999962  45.34999847
C    10.93999958  16.69000053  46.68000031
C     9.96000004  16.75000000  47.65999603
C     8.64999962  17.13999939  47.31999969
C     7.51999950  17.21999931  48.18999863
C     6.28999996  17.61000061  47.78999710
C     6.01000023  17.89999962  46.45999908
C     7.09999990  18.02000046  45.65999985
C     8.43000031  17.64999962  46.00999832
C    12.35000038  16.36000061  46.77999878
C    13.09999943  16.54999924  45.54000092
C    14.47999954  16.54999924  45.45000076
C     4.57999992  18.27999878  46.13999939
H     4.32186413  18.01448822  45.11483002
H     9.32999992  18.06999969  44.02999878
H    10.17000008  16.75000000  48.72000122
H     7.59999990  16.86000061  49.20999908
H     5.47999954  17.65999985  48.50999832
H     6.94999981  18.26000023  44.61000061
H    14.96000099  16.79999924  44.51000214
H     4.07000017  17.67000008  46.88999939
H     4.42000008  19.34999847  46.36000061
S    15.65999985  15.53999996  49.13999939
C    18.23999977  15.17000008  48.36000061
C    16.98999977  15.65999985  48.04999924
C    16.63999939  16.05999947  46.69000244
C    17.70000076  16.18999863  45.77000046
C    19.03000069  15.67000008  46.03000259
C    20.02000046  15.73999977  45.13000107
C    21.28000069  15.34000015  45.51000214
C    21.53000069  14.78999996  46.81000137
C    20.51000214  14.68000031  47.68000031
C    19.23999977  15.25000000  47.37999725
C    15.25000000  16.22999954  46.58000183
C    14.57999992  15.93000031  47.77999878
C    13.17999935  16.03000069  47.90000153
C    22.96999931  14.40999985  47.09999847
H    23.16758156  14.57935715  48.15847778
H    18.63999939  14.73000050  49.27000046
H    17.52000046  16.47999954  44.73999786
H    19.85999870  16.15999985  44.13999939
H    21.91999817  15.48999977  44.64000320
H    20.76000023  14.40000057  48.69999695
H    12.69000053  15.77999973  48.82999802
H    23.65999985  14.98000050  46.47999573
H    23.11000061  13.32999992  46.91999817
S    11.71000004  17.56000137  50.73999786
C     9.03999996  17.86999893  51.45999908
C    10.31999969  17.53000069  51.79000092
C    10.62000084  17.00000000  53.08000183
C     9.64999962  16.75000000  54.02999878
C     8.34000015  17.18000031  53.73000336
C     7.31999969  16.97999954  54.64000320
C     6.02999973  17.32999992  54.40999985
C     5.75000000  17.97999954  53.16999817
C     6.71999979  18.13999939  52.19999695
C     7.99000025  17.73999977  52.44999695
C    12.02000046  16.69999886  53.27999878
C    12.76000023  16.95999908  52.08000183
C    14.15999985  16.69000053  52.02999878
C     4.39000034  18.43000031  52.76000214
H     4.02589607  17.86984062  51.89875412
H     8.89000034  18.52000046  50.59999847
H     9.96000004  16.36000061  55.00000000
H     7.63000011  16.45000076  55.54000092
H     5.17000008  17.00000000  54.98000336
H     6.42000008  18.59000015  51.25999832
H    14.68000031  17.01000023  51.12999725
H     3.63999987  18.37000084  53.55999756
H     4.53000021  19.45000076  52.38999939
S    15.03999901  15.71000004  55.76000214
C    17.81999969  15.15999985  55.13999939
C    16.53000069  15.62000084  54.79999924
C    16.23999977  15.95000076  53.40000153
C    17.29999924  16.20000076  52.50999832
C    18.53000069  15.85000038  52.84000015
C    19.64999962  16.05999947  51.97000122
C    20.82999992  15.44999981  52.35000229
C    21.04999924  14.73999977  53.54999924
C    20.07999802  14.68000031  54.41999817
C    18.77000046  15.21000004  54.08000183
C    14.81999969  16.18999863  53.15000153
C    14.06999969  16.10999870  54.36000061
C    12.69000053  16.23999977  54.38999939
C    22.46000099  14.32999992  54.06999969
H    22.66887665  14.83418274  55.01354218
H    18.00000000  14.84000015  56.17000198
H    17.04000092  16.60000038  51.52999878
H    19.56999969  16.45000076  50.96000290
H    21.63999939  15.39000034  51.63000107
H    20.28000069  14.44000053  55.45999908
H    12.13999939  15.85999966  55.24000168
H    23.29999924  14.63999939  53.43000031
H    22.50000000  13.23999977  54.19000244
