96

S    12.38999939  17.18000031  44.36999893
C     9.77000046  17.38999939  45.13000107
C    11.05999947  16.95999908  45.48999786
C    11.36999989  16.36000061  46.75000000
C    10.32999992  16.34000015  47.71999741
C     9.02999973  16.77000046  47.43000031
C     7.96999979  16.46999931  48.30999756
C     6.65999985  16.77000046  47.97000122
C     6.34999990  17.35000038  46.68000031
C     7.35000038  17.48999977  45.75000000
C     8.71000004  17.20999908  46.05999756
C    12.82999992  16.26000023  46.84999847
C    13.50000000  16.70999908  45.65999985
C    14.91000080  16.62999916  45.65000153
C     4.90000010  17.63000107  46.43000031
H     4.52237606  17.01999283  45.60939789
H     9.51000023  17.75000000  44.13000107
H    10.53999996  16.00000000  48.73000336
H     8.14999962  15.97000027  49.26000214
H     5.88000011  16.53000069  48.68999863
H     7.13999987  17.89999962  44.75999832
H    15.44000053  16.63999939  44.69999695
H     4.34999990  17.27000046  47.30999756
H     4.80999994  18.67000008  46.09000397
S    16.02000046  15.39999962  49.29000092
C    18.68000031  15.08999920  48.53000259
C    17.42000008  15.36999893  48.16999817
C    17.06999969  15.92000008  46.90000153
C    18.09000015  16.03000069  45.93000031
C    19.40000153  15.73999977  46.30000305
C    20.43999863  15.75000000  45.31000137
C    21.71999931  15.17000008  45.59999847
C    22.01999855  14.85000038  46.93000031
C    21.04000092  14.88999939  47.84999847
C    19.70000076  15.29000092  47.60000229
C    15.64000034  16.22999954  46.76000214
C    14.96000099  16.11999893  47.97000122
C    13.56999969  15.97000027  47.98999786
C    23.43000031  14.37000084  47.36000061
H    23.82693291  14.95457554  48.18994904
H    18.84000015  14.59000015  49.47999954
H    17.84000015  16.22999954  44.88999939
H    20.17000008  16.06999969  44.31000137
H    22.43999863  15.06999969  44.79000092
H    21.28000069  14.57999992  48.86000061
H    13.09000015  15.67000008  48.90999603
H    24.15999985  14.42000008  46.53999710
H    23.18000031  13.34000015  47.64999771
S    12.15000057  17.19000053  50.91999817
C     9.44000053  17.45000076  51.56000137
C    10.70000076  17.09000015  51.98999786
C    11.05000019  16.57999992  53.26000214
C     9.98000050  16.35000038  54.08000183
C     8.64999962  16.70999908  53.68999863
C     7.55999994  16.72000122  54.61999893
C     6.32999992  17.19000053  54.34999847
C     6.17000008  17.75000000  53.06999969
C     7.17999983  17.88999939  52.16999817
C     8.43999958  17.29999924  52.41000366
C    12.51999950  16.44000053  53.41999817
C    13.19000053  16.69999886  52.21000290
C    14.59000015  16.57999992  52.14000320
C     4.77999973  18.22000122  52.65999603
H     4.29794788  17.46147728  52.04325485
H     9.36999989  17.97000122  50.59999847
H    10.06000042  15.92000008  55.06999969
H     7.75000000  16.48999977  55.66999817
H     5.52999973  17.11000061  55.08999634
H     6.91999960  18.15000153  51.13999939
H    15.08999920  16.82999992  51.20999908
H     4.05999994  18.36000061  53.47999954
H     4.84000015  19.12999916  52.04999924
S    15.65999985  15.57999992  55.86999893
C    18.30000114  15.14999962  55.05000305
C    17.10000038  15.75000000  54.77000427
C    16.70999908  16.06999969  53.48999786
C    17.63000107  15.95000076  52.48000336
C    18.94000053  15.46000004  52.77000046
C    20.06999969  15.52999973  51.86000061
C    21.25000000  15.11000061  52.28000259
C    21.63000107  14.75000000  53.60000229
C    20.63999939  14.78999996  54.52999878
C    19.29999924  15.08999920  54.13999939
C    15.24000072  16.22999954  53.33000183
C    14.53999996  15.98999977  54.54999924
C    13.25000000  16.20000076  54.58000183
C    23.02999878  14.32999992  54.00000000
H    23.43912125  15.02622604  54.73211288
H    18.56999969  14.75000000  56.03000259
H    17.26000023  16.07999992  51.46999741
H    19.78000069  15.93000031  50.89000320
H    21.98999786  14.89999962  51.51000214
H    20.84000015  14.55000019  55.58000183
H    12.74000072  16.22999954  55.54000092
H    23.71000099  14.26000023  53.13999939
H    23.03999901  13.35000038  54.48999786
