96

S    11.87999916  16.80999947  44.29999924
C     9.25000000  17.07999992  45.00999832
C    10.47999954  16.68000031  45.38999939
C    10.77999973  16.10000038  46.66999817
C     9.85000038  16.18000031  47.68000031
C     8.52000046  16.67000008  47.32999802
C     7.42999983  16.72000122  48.22000122
C     6.19000006  17.07999992  47.81000137
C     5.93999958  17.53000069  46.49000168
C     6.94999981  17.53999901  45.56000137
C     8.25000000  17.13999939  45.94999695
C    12.18000031  15.98999977  46.79000092
C    12.89999962  16.13999939  45.54999924
C    14.27000046  16.13000107  45.47000122
C     4.57999992  17.87999916  46.00000000
H     4.35477686  17.26438904  45.12913895
H     8.97000027  17.29999924  43.97999573
H    10.06999969  15.76000023  48.66000366
H     7.51999950  16.22999954  49.18000031
H     5.40000010  16.93000031  48.53000259
H     6.88000011  17.94000053  44.54999924
H    14.75999928  16.39999962  44.54000092
H     3.77999997  17.61000061  46.70999908
H     4.55999994  18.95000076  45.77000046
S    15.26999950  15.40999985  49.25000000
C    18.05999947  15.13000011  48.50000000
C    16.72000122  15.47999954  48.25000000
C    16.40999985  15.93000031  46.90999985
C    17.36999893  16.03999901  45.91999817
C    18.72999954  15.65999985  46.20999908
C    19.77000046  15.73999977  45.26000214
C    21.04999924  15.36000061  45.66999817
C    21.37000084  14.88999939  46.95000076
C    20.38000107  14.80999947  47.88000107
C    19.05999947  15.22999954  47.55000305
C    14.96999931  15.97000027  46.70000076
C    14.23999977  15.69000053  47.85999680
C    12.86000061  15.71000004  47.94000244
C    22.70000076  14.29999924  47.25999832
H    23.08351517  14.72535229  48.18740845
H    18.32999992  14.75999928  49.48999786
H    17.10000038  16.42000008  44.93999863
H    19.51000023  16.17000008  44.29999924
H    21.78999901  15.52000046  44.88999939
H    20.62000084  14.35999966  48.83999634
H    12.30000019  15.54999924  48.85000229
H    23.47999954  14.34000015  46.49000168
H    22.56000137  13.22999954  47.43999863
S    11.85999966  17.32999992  51.04000092
C     9.23999977  17.52000046  51.79999924
C    10.57000065  17.11000061  52.11000061
C    10.88999939  16.50000000  53.34000015
C     9.86999989  16.34000015  54.34999847
C     8.56999969  16.77999878  54.05000305
C     7.50000000  16.69999886  55.00999832
C     6.24000025  17.11000061  54.78000259
C     5.93999958  17.56000137  53.46000290
C     6.94000006  17.84000015  52.56000137
C     8.23999977  17.42000008  52.81999969
C    12.30999947  16.36999893  53.41999817
C    12.97000027  16.82999992  52.27000427
C    14.35999966  16.93000031  52.23999786
C     4.51000023  17.86999893  53.11000061
H     4.19998646  17.54589462  52.11654663
H     9.06000042  17.89999962  50.79999924
H    10.10000038  16.04999924  55.37000275
H     7.63999987  16.29999924  56.00999832
H     5.45000029  17.01000023  55.51000214
H     6.67000008  18.22999954  51.58000183
H    14.86999989  17.10000038  51.30000305
H     3.96000004  17.30999947  53.87000275
H     4.23999977  18.92000008  53.27000046
S    15.39000034  15.81999969  55.84000015
C    18.11000061  15.47999954  55.14999771
C    16.87000084  15.95999908  54.86999893
C    16.54999924  16.46999931  53.54000092
C    17.50000000  16.44000053  52.50000000
C    18.82999992  15.92000008  52.81999969
C    19.85999870  15.73999977  51.79000092
C    21.01000023  15.21999931  52.16999817
C    21.32999802  14.75999928  53.44999695
C    20.34000015  14.77000046  54.43000031
C    19.09000015  15.39000034  54.13999939
C    15.11999989  16.64999962  53.40999985
C    14.39000034  16.18999863  54.54000092
C    13.02999973  16.10000038  54.54999924
C    22.73999977  14.35999966  53.90999603
H    23.09595108  14.98814869  54.72658920
H    18.37000084  15.03999901  56.11000061
H    17.22999954  16.70999908  51.47999573
H    19.60000038  15.80999947  50.73999786
H    21.81999969  15.07999992  51.45999908
H    20.43999863  14.44000053  55.45999908
H    12.58999920  15.75000000  55.47999954
H    23.47999954  14.25000000  53.11000061
H    22.67000008  13.30999947  54.22000122
