96

S    11.84000015  16.70999908  44.20999908
C     9.17000008  17.13000107  44.95999908
C    10.43000031  16.81999969  45.28999710
C    10.82999992  16.38000107  46.59999847
C     9.92000008  16.25000000  47.56999969
C     8.56999969  16.59000015  47.31999969
C     7.57000017  16.55999947  48.29999924
C     6.25999975  16.98999977  48.08000183
C     5.89999962  17.46999931  46.77999878
C     6.88000011  17.46999931  45.81999969
C     8.23999977  17.06999969  46.03000259
C    12.27000046  15.98999977  46.63999939
C    12.94999981  16.03999901  45.41999817
C    14.28999996  15.75000000  45.31999969
C     4.51999998  18.06999969  46.42000198
H     4.10941982  17.48244476  45.59884262
H     8.85000038  17.42000008  43.95999908
H    10.15999985  15.75000000  48.50999832
H     7.82000017  16.25000000  49.31000137
H     5.59000015  17.20000076  48.89999771
H     6.70000029  17.95999908  44.86999893
H    14.89999962  15.76000023  44.41999817
H     3.73000002  17.95999908  47.16999817
H     4.44999981  19.07999992  46.00999832
S    15.44999981  15.32999992  49.13000107
C    18.07999992  14.73999977  48.46000290
C    16.84000015  15.19000053  48.09000015
C    16.45000076  15.51000023  46.72000122
C    17.43999863  15.52999973  45.84000015
C    18.78000069  15.21999931  46.19999695
C    19.77000046  15.14000034  45.13999939
C    21.05999947  14.77000046  45.45999908
C    21.38000107  14.22999954  46.75000000
C    20.43000031  14.17000008  47.71999741
C    19.13999939  14.77000046  47.51999664
C    15.01999950  15.54999924  46.51000214
C    14.40000057  15.55999947  47.75000000
C    13.02000046  15.84000015  47.80000305
C    22.79999924  13.82999992  47.12999725
H    23.13408661  14.37733555  48.01142120
H    18.05999947  14.26000023  49.43000031
H    17.18000031  15.71000004  44.79999924
H    19.37999916  15.19999981  44.13000107
H    21.77000046  14.70999908  44.64000320
H    20.75000000  13.92000008  48.73000336
H    12.48000050  15.84000015  48.74000168
H    23.38999939  13.96000004  46.22000122
H    22.79999924  12.74000072  47.28000259
S    16.22999954  12.53999901  52.52999878
C    18.89000130  12.35000038  51.56000137
C    17.53999901  12.15000057  51.39999771
C    17.05000114  11.75000000  50.08999634
C    17.86999893  11.28000069  49.06000137
C    19.20999908  11.30000019  49.31000137
C    20.15000153  10.64000034  48.44999695
C    21.48999977  10.54999924  48.75000000
C    21.97000122  11.09000015  49.89999771
C    21.14999962  11.82999992  50.73999786
C    19.78000069  11.90000057  50.52000046
C    15.65999985  11.97999954  49.95999908
C    15.11000061  12.50000000  51.11999893
C    13.76999950  12.92000008  51.17000198
C    23.38000107  10.60999966  50.19000244
H    23.70391846  11.03469467  51.14016724
H    19.34999847  12.76000023  52.44999695
H    17.50000000  10.90000057  48.11000061
H    19.65999985  10.06999969  47.65999603
H    22.13000107  10.05000019  48.02999878
H    21.53000069  12.23000050  51.68000031
H    13.38000107  13.19000053  52.15000153
H    23.51000023   9.52000046  50.17000198
H    24.09000015  10.98000050  49.43999863
S    12.46000099  12.28000069  47.44999695
C     9.80000019  12.97000027  48.15999985
C    11.14999962  12.86999893  48.50000000
C    11.67000008  13.22000027  49.82999802
C    10.78999996  13.64999962  50.77000046
C     9.36999989  13.67000008  50.47000122
C     8.46000004  13.96000004  51.51000214
C     7.11999989  14.01999950  51.25000000
C     6.61999989  13.71000099  49.97000122
C     7.44999981  13.35999966  48.93000031
C     8.86999989  13.36999989  49.15000153
C    13.02999973  12.96000004  50.01999664
C    13.59000015  12.35999966  48.81000137
C    14.88000011  11.84999943  48.79000092
C     5.13999987  13.96999931  49.68000031
H     4.86113262  13.70580959  48.65993500
H     9.35000038  12.76000023  47.19999695
H    11.18999958  13.97999954  51.72999954
H     8.82000065  14.22999954  52.50000000
H     6.39999962  14.55999947  51.84999847
H     7.11000013  13.22000027  47.90000153
H    15.38000011  11.54000092  47.87000275
H     4.97000027  15.05000019  49.75000000
H     4.53000021  13.53999996  50.47999954
