96

S    12.11999989  16.38000107  44.13999939
C     9.48999977  16.69999886  44.69999695
C    10.71000004  16.32999992  45.20000076
C    11.09000015  16.15999985  46.58000183
C    10.07999992  16.22999954  47.48000336
C     8.82000065  16.59000015  47.09999847
C     7.76000023  16.60000038  48.04000092
C     6.48999977  16.98999977  47.68000031
C     6.23000050  17.36999893  46.32999802
C     7.22000027  17.35000038  45.37000275
C     8.53999996  16.97000122  45.73999786
C    12.51999950  16.00000000  46.66999817
C    13.21000004  16.10999870  45.44000244
C    14.61999989  16.05999947  45.41999817
C     4.79999971  17.48999977  45.90999985
H     4.44204712  17.02676773  44.99055099
H     9.28999996  16.82999992  43.63999939
H    10.31999969  15.95999908  48.50000000
H     7.94000053  16.29999924  49.06999969
H     5.72000027  16.90999985  48.43000031
H     6.86999989  17.51000023  44.34999847
H    15.14000034  16.28999901  44.50000000
H     4.18000031  17.30999947  46.79999924
H     4.79999971  18.57999992  45.79000092
S    15.57999992  15.47999954  49.22000122
C    18.20999908  14.77000046  48.50000000
C    16.95999908  15.11999989  48.15999985
C    16.64999962  15.53999996  46.79000092
C    17.68000031  15.62000084  45.87999725
C    18.98999977  15.31999969  46.25000000
C    20.05000114  15.36000061  45.30000305
C    21.31000137  14.93999958  45.66999817
C    21.56999969  14.60999966  47.04999924
C    20.52000046  14.52999973  47.93000031
C    19.23999977  14.94999981  47.58999634
C    15.29000092  15.78999996  46.62000275
C    14.56999969  15.84000015  47.77999878
C    13.22000027  15.85999966  47.87000275
C    22.92000008  14.14000034  47.32999802
H    23.18353844  14.50756741  48.32173538
H    18.38999939  14.37000084  49.48999786
H    17.53000069  15.84000015  44.82999802
H    19.88999939  15.76000023  44.29999924
H    22.06000137  14.93000031  44.88999939
H    20.63999939  14.09999943  48.92000198
H    12.69000053  15.62000084  48.77999878
H    23.51000023  14.60000038  46.52999878
H    23.13999939  13.07000065  47.22000122
S    16.14999962  12.61999989  52.21000290
C    18.70000076  12.03999996  51.42000198
C    17.40999985  12.13999939  51.11999893
C    16.95999908  11.87000084  49.75999832
C    17.80999947  11.46999931  48.81000137
C    19.18000031  11.38000011  49.09999847
C    20.06999969  10.78999996  48.22000122
C    21.37000084  10.60999966  48.54999924
C    21.80999947  10.98000050  49.80999756
C    20.95000076  11.64000034  50.70999908
C    19.63999939  11.79999924  50.38000107
C    15.52000046  12.09000015  49.68000031
C    14.96000099  12.43000031  50.84999847
C    13.66000080  12.90999985  50.97999954
C    23.25000000  10.67999935  50.24000168
H    23.42506218  10.87694550  51.29767227
H    19.04000092  12.22000027  52.43999863
H    17.42000008  10.85999966  48.00000000
H    19.57999992  10.25000000  47.41000366
H    22.04000092  10.24000072  47.78999710
H    21.18000031  11.95000076  51.72999954
H    13.25000000  13.40000057  51.86000061
H    23.40999985   9.63000011  49.95999908
H    23.95000076  11.28000069  49.64000320
S    12.13999939  12.13000107  47.41000366
C     9.63999939  12.89999962  48.15000153
C    10.95000076  12.84000015  48.41999817
C    11.38000011  13.15999985  49.73999786
C    10.55999947  13.68999958  50.63000107
C     9.15000057  13.73999977  50.40999985
C     8.23000050  14.13000011  51.45000076
C     6.94000006  14.07999992  51.18000031
C     6.38000011  13.59000015  49.97000122
C     7.23999977  13.14000034  48.99000168
C     8.69999981  13.27000046  49.12000275
C    12.76000023  12.75000000  49.88999939
C    13.26000023  12.15000057  48.77999878
C    14.61999989  11.90000057  48.63999939
C     4.92999983  13.80000019  49.68000031
H     4.62983036  13.31680012  48.75020599
H     9.36999989  12.65999985  47.11999893
H    10.95000076  14.06000042  51.58000183
H     8.76000023  14.51000023  52.31999969
H     6.30000019  14.65999985  51.84000015
H     6.98000002  12.89999962  47.95999908
H    14.98999977  11.51999950  47.69000244
H     4.85000038  14.88999939  49.58000183
H     4.30000019  13.48999977  50.52999878
