96

S    12.05000019  17.11000061  44.29000092
C     9.35000038  17.20999908  44.98000336
C    10.65000057  16.72999954  45.30000305
C    10.98999977  16.29999924  46.59999847
C     9.90999985  16.34000015  47.56999969
C     8.64000034  16.87000084  47.29999924
C     7.59999990  16.81999969  48.20999908
C     6.37000036  17.32999992  47.88000107
C     6.10000038  17.65999985  46.56999969
C     7.11999989  17.60000038  45.59999847
C     8.38999939  17.20000076  45.93999863
C    12.42000008  16.27000046  46.84999847
C    13.12999916  16.72000122  45.63999939
C    14.52000046  16.69999886  45.58000183
C     4.69000006  18.15000153  46.23000336
H     4.41186476  17.78147125  45.24261856
H     9.13999939  17.79999924  44.09000015
H    10.03000069  15.97000027  48.59000397
H     7.81000042  16.31000137  49.13999939
H     5.60999966  17.46999931  48.63999939
H     7.03999996  18.04000092  44.59999847
H    14.96999931  16.69999886  44.59000015
H     4.03999996  17.71000099  47.00000000
H     4.73000002  19.23999977  46.31999969
S    15.55999947  15.48999977  49.15999985
C    18.27999878  14.98000050  48.50999832
C    17.01000023  15.54999924  48.16999817
C    16.68000031  15.98000050  46.88000107
C    17.64999962  15.93999958  45.90000153
C    18.90999985  15.38000011  46.16000366
C    19.89999962  15.44999981  45.15999603
C    21.19999886  14.96999931  45.35999680
C    21.51000023  14.51000023  46.70999908
C    20.55000114  14.37999916  47.75000000
C    19.26000023  14.89999962  47.43999863
C    15.22999954  16.31999969  46.72000122
C    14.53999996  15.92000008  47.84000015
C    13.20000076  15.97000027  47.95000076
C    22.98000145  14.14000034  47.16999817
H    23.19167900  14.54924488  48.15782928
H    18.32999992  14.60999966  49.52999878
H    17.46000099  16.28999901  44.88999939
H    19.67000008  16.14999962  44.36000061
H    21.88999939  15.13000011  44.52999878
H    20.84000015  14.09999943  48.75999832
H    12.74000072  15.71000004  48.89999771
H    23.59999847  14.60999966  46.38999939
H    23.18000031  13.05999947  47.18999863
S    11.73999977  17.15999985  50.89000320
C     9.15000057  17.64999962  51.53999710
C    10.36999893  17.27000046  51.95000076
C    10.65999985  16.90999985  53.29000092
C     9.65999985  16.86000061  54.22999954
C     8.39999962  17.35000038  53.88999939
C     7.35000038  17.36999893  54.84000397
C     6.05000019  17.70000076  54.50000000
C     5.82999992  18.20000076  53.13999939
C     6.80999994  18.13999939  52.16999817
C     8.10000038  17.67000008  52.50000000
C    12.13000107  16.82999992  53.50999832
C    12.84999943  17.01000023  52.32999802
C    14.25000000  17.01000023  52.29000092
C     4.48000002  18.68000031  52.74000168
H     4.07744408  18.10491943  51.90613556
H     8.94999981  17.95999908  50.51000214
H     9.80000019  16.34000015  55.17000198
H     7.50000000  16.79000092  55.73999786
H     5.21000004  17.43999863  55.14999771
H     6.72999954  18.56999969  51.18000031
H    14.72000027  17.15999985  51.31999969
H     3.84000015  18.47999954  53.61999893
H     4.42000008  19.76000023  52.57999802
S    15.29999924  15.85999966  55.97000122
C    17.87999916  15.36999893  55.15999603
C    16.62999916  15.73999977  54.79999924
C    16.29999924  16.13999939  53.43999863
C    17.39999962  16.36000061  52.55000305
C    18.65999985  15.95999908  52.90000153
C    19.78000069  16.09000015  51.97999954
C    21.07000160  15.76000023  52.30999756
C    21.18999863  15.03999901  53.54999924
C    20.22000122  14.88000011  54.48999786
C    18.90999985  15.36999893  54.18000031
C    14.91000080  16.54999924  53.34000015
C    14.23999977  16.32999992  54.61000061
C    12.84000015  16.45000076  54.64000320
C    22.56000137  14.59000015  53.87000275
H    22.93839264  15.07548332  54.76957321
H    18.05999947  15.03000069  56.18000031
H    17.26000023  16.72000122  51.52999878
H    19.52999878  16.59000015  51.04000092
H    21.88999939  16.03999901  51.65999985
H    20.42000008  14.40000057  55.45000076
H    12.30000019  16.10999870  55.52000046
H    23.29000092  14.85999966  53.09999847
H    22.50999832  13.50999928  54.03999710
