96

S    12.18999958  16.95000076  44.13000107
C     9.48999977  17.34000015  44.88999939
C    10.77999973  16.93000031  45.24000168
C    11.13999939  16.54000092  46.55000305
C    10.07999992  16.44000053  47.49000168
C     8.73999977  16.82999992  47.19999695
C     7.72000027  16.94000053  48.27999878
C     6.51000023  17.50000000  47.94000244
C     6.17999983  17.86000061  46.59999847
C     7.13000011  17.94999886  45.66999817
C     8.43000031  17.38999939  45.90000153
C    12.55000019  16.31999969  46.72000122
C    13.22999954  16.56999969  45.52000046
C    14.65000057  16.39000130  45.45000076
C     4.71000004  18.09999847  46.14999771
H     4.41364956  17.52140999  45.27506256
H     9.28999996  17.75000000  43.89999771
H    10.31000042  16.00000000  48.44999695
H     8.09000015  16.67000008  49.26000214
H     5.78000021  17.71999931  48.70999908
H     6.98000002  18.17000008  44.61999893
H    15.29000092  16.70999908  44.62999725
H     3.98999977  17.94999886  46.97000122
H     4.59000015  19.18000031  45.98999786
S    15.67999935  15.43000031  49.12000275
C    18.38000107  15.36999893  48.52000427
C    17.10000038  15.54999924  48.08000183
C    16.76000023  15.85999966  46.72999954
C    17.72999954  16.09000015  45.77000046
C    19.06999969  15.85000038  46.18000031
C    20.03999901  15.71000004  45.26000214
C    21.31999969  15.36999893  45.52000046
C    21.73000145  15.06999969  46.84000015
C    20.72000122  15.14999962  47.77999878
C    19.38999939  15.50000000  47.50000000
C    15.29000092  16.03000069  46.59999847
C    14.59000015  15.84000015  47.80000305
C    13.23999977  15.85999966  47.85999680
C    23.05000114  14.50000000  47.14000320
H    23.38668060  14.85042191  48.11568451
H    18.61999893  15.14999962  49.55999756
H    17.39999962  16.32999992  44.75999832
H    19.76000023  15.84000015  44.22000122
H    22.03000069  15.26000023  44.69999695
H    20.95999908  14.80999947  48.79000092
H    12.71000004  15.52999973  48.75000000
H    23.65999985  14.73000050  46.25999832
H    22.86999893  13.40999985  47.15000153
S    16.13000107  12.76000023  51.97999954
C    18.82999992  12.44999981  51.18999863
C    17.51000023  12.38000011  50.89000320
C    17.01000023  11.90000057  49.61000061
C    17.95999908  11.56000042  48.67000198
C    19.34999847  11.63000011  48.92000198
C    20.28000069  11.07999992  48.01000214
C    21.64999962  10.97000027  48.27999878
C    22.06000137  11.36000061  49.59000015
C    21.14999962  11.82999992  50.51000214
C    19.80999947  11.97000027  50.20000076
C    15.52999973  12.06999969  49.43999863
C    14.94999981  12.48999977  50.70000076
C    13.67000008  12.88000011  50.66999817
C    23.44000053  10.98999977  50.04000092
H    23.66819191  11.21819401  51.08113480
H    19.17000008  12.67000008  52.19999695
H    17.70000076  11.14999962  47.69000244
H    19.73999977  10.76000023  47.12999725
H    22.36000061  10.60999966  47.55000305
H    21.54999924  12.20000076  51.45000076
H    13.26000023  13.25000000  51.59999847
H    23.59999847   9.94000053  49.75000000
H    24.14999962  11.51000023  49.38999939
S    12.20000076  12.11999989  47.06999969
C     9.59999943  12.81999969  47.81999969
C    10.93999958  12.71000004  48.20000076
C    11.42000008  13.00000000  49.47999954
C    10.50000000  13.45999908  50.40000153
C     9.10000038  13.53999996  50.10000229
C     8.18000031  13.92000008  51.06999969
C     6.84000015  14.19000053  50.86999893
C     6.35999966  13.94999981  49.54000092
C     7.26999998  13.53000069  48.55999756
C     8.67000008  13.30999947  48.79000092
C    12.81000042  12.69000053  49.54000092
C    13.35999966  12.15999985  48.37999725
C    14.75000000  11.82000065  48.27999878
C     4.94999981  14.34999943  49.16999817
H     4.54591894  13.74033356  48.36183548
H     9.21000004  12.53000069  46.84999847
H    10.84000015  13.71999931  51.39999771
H     8.64999962  14.30999947  51.97000122
H     6.23000050  14.77000046  51.56000137
H     6.96000004  13.36999989  47.52999878
H    15.25000000  11.36999989  47.43000031
H     4.98000002  15.39000034  48.82999802
H     4.32000017  14.34000015  50.06999969
