96

S    12.27000046  16.76000023  44.34999847
C     9.63000011  17.10000038  45.06000137
C    10.85999966  16.64999962  45.38999939
C    11.11999989  16.14999962  46.68000031
C    10.06000042  16.18000031  47.58999634
C     8.78999996  16.68000031  47.29999924
C     7.76000023  16.69999886  48.27000046
C     6.48999977  17.02000046  47.90000153
C     6.17999983  17.30999947  46.51000214
C     7.22000027  17.52000046  45.61999893
C     8.52999973  17.13999939  45.97000122
C    12.58999920  15.93999958  46.90999985
C    13.32999992  16.21000099  45.68000031
C    14.72000027  16.17000008  45.70000076
C     4.82999992  17.94000053  46.06999969
H     4.41685534  17.28877258  45.29973221
H     9.39000034  17.51000023  44.09000015
H    10.07999992  15.59000015  48.50000000
H     7.88000011  16.40999985  49.31000137
H     5.73000002  17.11000061  48.68000031
H     7.02000046  17.89999962  44.61999893
H    15.25000000  16.34000015  44.77000427
H     4.07000017  18.12000084  46.84999847
H     5.03000021  18.93000031  45.65000153
S    15.78999996  15.10000038  49.36999893
C    18.46999931  14.81999969  48.62999725
C    17.23999977  15.26000023  48.29999924
C    16.88999939  15.73999977  46.98999786
C    17.82999992  15.86999989  46.04999924
C    19.13999939  15.40999985  46.32999802
C    20.09000015  15.53999996  45.34999847
C    21.40999985  15.07999992  45.59999847
C    21.77000046  14.47000027  46.84999847
C    20.78000069  14.42000008  47.84000015
C    19.48999977  14.82999992  47.57999802
C    15.44999981  15.88999939  46.83000183
C    14.70999908  15.69000053  48.04000092
C    13.30000019  15.57000065  48.02999878
C    23.19000053  14.27000046  47.15000153
H    23.49507904  14.80211449  48.05104828
H    18.73999977  14.50000000  49.62999725
H    17.57999992  16.22999954  45.06000137
H    19.85000038  16.13000107  44.47000122
H    22.20000076  15.36999893  44.91000366
H    21.04000092  14.07999992  48.83999634
H    12.69000053  15.26999950  48.88000107
H    23.75999832  14.57999992  46.25999832
H    23.32999992  13.19000053  47.25999832
S    11.96000004  16.80999947  50.97000122
C     9.38000011  17.53999901  51.79000092
C    10.55999947  16.87999916  52.05999756
C    10.93000031  16.46999931  53.40999985
C     9.92000008  16.47999954  54.38999939
C     8.65999985  17.04000092  54.09000015
C     7.59000015  16.84999847  54.92000198
C     6.34000015  17.27000046  54.58000183
C     6.03999996  17.84000015  53.30999756
C     7.07000017  18.01000023  52.38999939
C     8.38999939  17.60000038  52.77000046
C    12.39999962  16.35000038  53.50999832
C    13.09999943  16.61000061  52.31999969
C    14.47000027  16.59000015  52.22999954
C     4.59000015  18.07999992  52.88000107
H     4.26204300  17.45973206  52.04584885
H     9.04999924  17.88999939  50.80999756
H    10.00000000  15.98000050  55.34999847
H     7.77999973  16.31000137  55.84000015
H     5.56999969  17.32999992  55.34999847
H     6.94000006  18.20999908  51.32999802
H    14.89999962  16.72000122  51.25000000
H     3.98000002  17.90999985  53.77999878
H     4.53999996  19.12999916  52.56999969
S    15.50000000  15.65999985  55.86999893
C    18.27000046  15.31999969  55.27000046
C    16.95999908  15.57999992  54.79000092
C    16.63999939  15.95999908  53.47000122
C    17.65999985  16.13999939  52.61000061
C    18.96000099  15.72000027  52.94000244
C    20.00999832  15.67999935  51.93000031
C    21.15999985  15.06999969  52.22999954
C    21.47000122  14.68999958  53.54000092
C    20.59000015  14.86999989  54.58000183
C    19.29000092  15.34999943  54.31999969
C    15.19999981  16.14999962  53.30999756
C    14.53999996  15.98000050  54.54999924
C    13.12000084  15.95999908  54.62999725
C    22.89999962  14.35999966  53.90999603
H    23.17177391  14.92445374  54.80197525
H    18.39999962  14.81999969  56.23000336
H    17.46000099  16.31000137  51.56000137
H    19.79999924  16.03000069  50.91999817
H    21.83000183  14.96999931  51.38000107
H    20.84000015  14.65999985  55.61000061
H    12.60000038  15.85999966  55.58000183
H    23.48999977  14.70000076  53.06000137
H    23.22999954  13.34000015  54.15999985
