96

S    12.00000000  16.54000092  43.81999969
C     9.36999989  17.06999969  44.69999695
C    10.64000034  16.59000015  44.92000198
C    10.98999977  16.26000023  46.25999832
C    10.07999992  16.39999962  47.29999924
C     8.75000000  16.70999908  47.08000183
C     7.73999977  16.75000000  48.09999847
C     6.48000002  17.21999931  47.71999741
C     6.25000000  17.78000069  46.42000198
C     7.22000027  17.71000099  45.47000122
C     8.47000027  17.12000084  45.72000122
C    12.48999977  16.17000008  46.44000244
C    13.12000084  16.31999969  45.15999603
C    14.48999977  16.27000046  45.07999802
C     4.85000038  18.13999939  45.97000122
H     4.41643810  17.46867752  45.22875214
H     9.01000023  17.38000107  43.73000336
H    10.44000053  16.17000008  48.29999924
H     7.88000011  16.50000000  49.15000153
H     5.71000004  17.23999977  48.47999954
H     7.04999971  18.02999878  44.45000076
H    14.93999958  16.32999992  44.09000015
H     4.19000006  18.09999847  46.84000015
H     4.86000013  19.13999939  45.52000046
S    15.71000004  15.65999985  48.85000229
C    18.30999947  15.14000034  48.02000046
C    17.06999969  15.62000084  47.72999573
C    16.70999908  15.97000027  46.35000229
C    17.71000099  16.10999870  45.38999939
C    18.98999977  15.65000057  45.77999878
C    20.03000069  15.55999947  44.79999924
C    21.28999901  15.11999989  45.13000107
C    21.57999992  14.86999989  46.49000168
C    20.52999878  14.65999985  47.36999893
C    19.25000000  15.13000011  47.04000092
C    15.22999954  16.02000046  46.25999832
C    14.56999969  15.86999989  47.49000168
C    13.20000076  16.01000023  47.61000061
C    23.05999947  14.65000057  46.90000153
H    23.18011665  14.72065735  47.98105621
H    18.60000038  14.81999969  49.02000046
H    17.61000061  16.32999992  44.33000183
H    19.80999947  15.93999958  43.80000305
H    21.97999954  15.11999989  44.29000092
H    20.76000023  14.39000034  48.39000320
H    12.71000004  16.02000046  48.56999969
H    23.81000137  15.26999950  46.38999939
H    23.38999939  13.61999989  46.76000214
S    16.23999977  13.15000057  52.43000031
C    18.77000046  12.43999958  51.63000107
C    17.46000099  12.55000019  51.32999802
C    16.95999908  12.13000107  50.10000229
C    17.79999924  11.61000061  49.13000107
C    19.19999886  11.51999950  49.34999847
C    20.13000107  11.28999901  48.34000015
C    21.47000122  11.25000000  48.62999725
C    22.00000000  11.40999985  49.87999725
C    21.09000015  11.89000034  50.79000092
C    19.67000008  12.01000023  50.65999985
C    15.53999996  12.38000011  50.00000000
C    14.94999981  12.92000008  51.18999863
C    13.68000031  13.53999996  51.11999893
C    23.39999962  11.00999928  50.19000244
H    23.68934631  11.26317787  51.20994186
H    19.12999916  12.89999962  52.54000092
H    17.39999962  11.14999962  48.22999954
H    19.75000000  11.21999931  47.31999969
H    22.13000107  10.85999966  47.85999680
H    21.48999977  12.03999996  51.79000092
H    13.09000015  13.89999962  51.95999908
H    23.52000046   9.92999935  50.06000137
H    24.03000069  11.54000092  49.45999908
S    12.36999989  12.22000027  47.56000137
C     9.76000023  12.64999962  48.23999786
C    11.06999969  12.79000092  48.57999802
C    11.51999950  13.32999992  49.80999756
C    10.59000015  13.76000023  50.72000122
C     9.19000053  13.55999947  50.41999817
C     8.17000008  13.94999981  51.39999771
C     6.84999990  14.06999969  51.04000092
C     6.43000031  13.64999962  49.72999954
C     7.31999969  13.04999924  48.86000061
C     8.75000000  13.09999943  49.16999817
C    12.97000027  13.35000038  49.95999908
C    13.55000019  12.63000011  48.85000229
C    14.81999969  12.22000027  48.87000275
C     5.00000000  13.86999989  49.31999969
H     4.81928539  13.51552105  48.30521393
H     9.31999969  12.31999969  47.29999924
H    10.85999966  14.21000004  51.66999817
H     8.50000000  14.40000057  52.34000397
H     6.17999983  14.57999992  51.72999954
H     7.00000000  12.86999893  47.84000015
H    15.27999973  11.87000084  47.95000076
H     4.75000000  14.93000031  49.45000076
H     4.28999996  13.42000008  50.02999878
