96

S    12.28000069  16.55999947  44.25000000
C     9.57999992  16.98999977  45.00000000
C    10.88999939  16.63999939  45.34000015
C    11.17000008  16.21999931  46.66999817
C    10.14999962  16.23999977  47.63000107
C     8.88000011  16.63999939  47.31999969
C     7.83999968  16.60000038  48.29000092
C     6.60000038  17.02000046  47.95999908
C     6.30999994  17.38000107  46.60999680
C     7.22000027  17.25000000  45.63999939
C     8.57999992  17.01000023  46.00999832
C    12.61000061  16.05999947  46.86000061
C    13.36999989  16.23999977  45.68999863
C    14.72000027  16.15999985  45.59000015
C     4.92000008  17.89999962  46.16000366
H     4.38594580  17.17174339  45.54965210
H     9.31999969  17.43999863  44.05000305
H    10.36999893  15.95999908  48.66000366
H     7.97999954  16.26000023  49.31000137
H     5.84999990  17.05000114  48.74000168
H     6.90999985  17.38999939  44.61000061
H    15.17000008  16.15999985  44.61000061
H     4.36999989  18.26000023  47.02999878
H     5.00999975  18.79999924  45.54999924
S    15.77000046  15.21999931  49.29999924
C    18.47999954  14.92000008  48.47000122
C    17.18000031  15.29000092  48.23999786
C    16.82999992  15.77999973  46.90000153
C    17.79000092  15.80999947  45.89000320
C    19.10000038  15.34000015  46.13999939
C    20.10999870  15.21999931  45.15999603
C    21.32999802  14.77000046  45.40999985
C    21.76000214  14.42000008  46.72999954
C    20.81000137  14.47000027  47.70999908
C    19.47000122  14.91000080  47.43000031
C    15.44000053  15.98999977  46.77999878
C    14.75000000  15.77999973  47.95999908
C    13.35999966  15.77000046  48.08000183
C    23.22000122  14.26000023  47.04000092
H    23.49547195  14.66261101  48.01474380
H    18.77000046  14.52000046  49.43999863
H    17.54999924  16.28000069  44.93000031
H    20.05000114  15.75000000  44.20999908
H    22.07999992  14.89999962  44.64000320
H    21.07000160  14.06000042  48.68000031
H    12.79000092  15.65999985  49.00000000
H    23.74000168  14.86999989  46.27999878
H    23.59000015  13.22999954  46.97999954
S    16.51000023  12.71000004  52.09999847
C    19.11999893  12.13000107  51.14999771
C    17.76000023  12.10999966  51.00999832
C    17.12000084  11.64999962  49.75000000
C    17.98999977  11.16000080  48.67000198
C    19.47000122  11.19999981  48.77999878
C    20.42000008  10.93999958  47.77000046
C    21.73000145  10.90999985  48.15999985
C    22.25000000  11.25000000  49.36999893
C    21.37000084  11.77999973  50.27000046
C    19.98999977  11.69999981  50.06000137
C    15.65999985  11.87999916  49.72000122
C    15.17000008  12.35999966  50.90999985
C    13.89000034  12.92000008  50.93999863
C    23.65999985  10.90999985  49.79999924
H    23.86987305  11.07925129  50.85612869
H    19.61000061  12.43999958  52.06999969
H    17.53999901  10.76000023  47.76000214
H    19.97999954  10.46000004  46.90000153
H    22.32999992  10.32999992  47.45999908
H    21.68999863  12.15999985  51.24000168
H    13.68999958  13.43999958  51.86999893
H    23.90999985   9.89999962  49.43999863
H    24.26000214  11.57999992  49.16999817
S    12.25000000  11.78999996  47.54000092
C     9.76000023  12.89000034  48.20999908
C    11.05999947  12.74000072  48.44999695
C    11.64000034  13.12999916  49.71000290
C    10.75000000  13.60000038  50.70999908
C     9.35999966  13.61999989  50.58000183
C     8.42000008  13.90999985  51.65000153
C     7.07999992  13.89999962  51.35000229
C     6.57999992  13.45000076  50.12000275
C     7.46000004  13.19000053  49.13000107
C     8.89999962  13.26000023  49.23999786
C    13.00000000  12.76999950  49.86000061
C    13.52000046  12.10999966  48.72000122
C    14.85000038  11.73999977  48.59000397
C     5.10999966  13.73000050  49.87999725
H     4.87492466  13.33590317  48.89129639
H     9.43000031  12.38000011  47.30999756
H    11.18000031  13.82999992  51.68000031
H     8.73999977  14.42000008  52.55000305
H     6.38000011  14.32999992  52.05999756
H     7.00999975  12.93000031  48.18000031
H    15.26000023  11.31999969  47.68000031
H     4.90000010  14.78999996  50.04000092
H     4.46999979  13.20000076  50.61000061
