96

S    12.28000069  17.13000107  44.05000305
C     9.59000015  17.39999962  44.75000000
C    10.86999989  16.95000076  45.06999969
C    11.21999931  16.51000023  46.38999939
C    10.26000023  16.45000076  47.41000366
C     8.94999981  16.97999954  47.09999847
C     7.92999983  16.84999847  48.02000046
C     6.63000011  17.20000076  47.72999573
C     6.25999975  17.77000046  46.45000076
C     7.26999998  17.89999962  45.48999786
C     8.57999992  17.42000008  45.76000214
C    12.63000011  16.35000038  46.53999710
C    13.31999969  16.72000122  45.38999939
C    14.63000107  16.69999886  45.37000275
C     4.80999994  18.04999924  46.11000061
H     4.44169378  17.38982773  45.32474518
H     9.44000053  17.92000008  43.80000305
H    10.53999996  16.09000015  48.40000153
H     8.06999969  16.18000031  48.86000061
H     5.86000013  17.05000114  48.47999954
H     7.00000000  18.39999962  44.56999969
H    15.13000011  16.95999908  44.43999863
H     4.23000002  17.95999908  47.04000092
H     4.71000004  19.11000061  45.84000015
S    15.65000057  15.65999985  49.13000107
C    18.30000114  15.26000023  48.40999985
C    17.04000092  15.62000084  48.00000000
C    16.77000046  16.06999969  46.68000031
C    17.73999977  16.03000069  45.77999878
C    19.11000061  15.67000008  46.12999725
C    20.15000153  15.52000046  45.19000244
C    21.34000015  15.00000000  45.52999878
C    21.57999992  14.52999973  46.79999924
C    20.59999847  14.73999977  47.75000000
C    19.32999992  15.21999931  47.43999863
C    15.34000015  16.26000023  46.51000214
C    14.63999939  16.15999985  47.76000214
C    13.27999973  16.23999977  47.75000000
C    22.98000145  14.11000061  47.18000031
H    23.30226517  14.49671841  48.14679718
H    18.37000084  15.13000011  49.47999954
H    17.69000053  16.47999954  44.79000092
H    19.92000008  15.80999947  44.15999985
H    22.13999939  15.05000019  44.79999924
H    20.79999924  14.44000053  48.77999878
H    12.65999985  16.23999977  48.63999939
H    23.65999985  14.32000065  46.33999634
H    22.86999893  13.02000046  47.25000000
S    11.82999992  16.98999977  51.10000229
C     9.10000038  17.35999870  51.86999893
C    10.36000061  16.88999939  52.15999985
C    10.67000008  16.45000076  53.43999863
C     9.72000027  16.32999992  54.43000031
C     8.46000004  16.84000015  54.22000122
C     7.39000034  16.64999962  55.10000229
C     6.09000015  16.97999954  54.73999786
C     5.84999990  17.77000046  53.61000061
C     6.80999994  17.79999924  52.67000198
C     8.13000011  17.31999969  52.90000153
C    12.07999992  16.22999954  53.60000229
C    12.77999973  16.46000099  52.44999695
C    14.18000031  16.62999916  52.39999771
C     4.41000032  18.20999908  53.29999924
H     4.01960993  17.84800148  52.34886551
H     8.85000038  17.78000069  50.90000153
H     9.96999931  15.70000076  55.28999710
H     7.50000000  16.02000046  55.98999786
H     5.25000000  16.69999886  55.35999680
H     6.57999992  18.32999992  51.73999786
H    14.65999985  16.76000023  51.43000031
H     3.72000003  17.95999908  54.10999680
H     4.38000011  19.29999924  53.16999817
S    15.25000000  15.47000027  55.91999817
C    17.88999939  14.96000099  55.24000168
C    16.63999939  15.36999893  54.86999893
C    16.32999992  15.97000027  53.57999802
C    17.42000008  16.09000015  52.70999908
C    18.71999931  15.67000008  53.06999969
C    19.75000000  15.72999954  52.15000153
C    21.01000023  15.31999969  52.55000305
C    21.25000000  14.77000046  53.82999802
C    20.23999977  14.68000031  54.75000000
C    18.95000076  15.07999992  54.34999847
C    14.89999962  16.39999962  53.50999832
C    14.18000031  16.13000107  54.68000031
C    12.82999992  15.97000027  54.77000427
C    22.70000076  14.37999916  54.20000076
H    23.00523376  14.99756622  55.04471588
H    17.97000122  14.60999966  56.26999664
H    17.13999939  16.42000008  51.72000122
H    19.51000023  16.27000046  51.23000336
H    21.87000084  15.53999996  51.91999817
H    20.43999863  14.26000023  55.72999954
H    12.28000069  15.71000004  55.66999817
H    23.34000015  14.55999947  53.33000183
H    22.59000015  13.30000019  54.38000107
