96

S    12.05999947  16.50000000  44.19000244
C     9.52999973  17.26000023  44.92000198
C    10.77999973  16.77999878  45.27000046
C    11.03000069  16.47999954  46.63999939
C    10.06999969  16.46999931  47.54000092
C     8.73000050  16.77000046  47.23999786
C     7.72000027  16.79000092  48.27999878
C     6.47000027  17.15999985  47.94000244
C     6.15000010  17.42000008  46.51000214
C     7.13000011  17.47999954  45.58000183
C     8.48999977  17.23999977  45.90000153
C    12.46000099  16.21000099  46.73999786
C    13.14000034  16.10000038  45.50000000
C    14.50000000  16.07999992  45.41999817
C     4.73000002  17.51000023  46.14999771
H     4.52337694  17.43423843  45.08244705
H     9.30999947  17.61000061  43.92000198
H    10.31999969  16.21000099  48.56999969
H     7.96000004  16.50000000  49.29999924
H     5.68000031  17.11000061  48.68000031
H     7.00000000  17.64999962  44.51000214
H    15.00000000  15.95000076  44.47000122
H     4.21000004  16.79999924  46.81000137
H     4.46000004  18.52000046  46.49000168
S    15.48999977  15.34000015  49.15999985
C    18.17000008  14.81999969  48.43999863
C    16.90999985  15.29000092  48.11000061
C    16.61000061  15.80999947  46.83000183
C    17.56000137  15.93000031  45.86000061
C    18.89000130  15.52999973  46.18999863
C    19.90999985  15.71000004  45.17000198
C    21.22999954  15.29999924  45.38000107
C    21.63000107  14.85000038  46.73999786
C    20.62999916  14.68999958  47.72999573
C    19.27999878  15.00000000  47.51999664
C    15.22999954  16.04999924  46.59999847
C    14.51000023  15.88999939  47.81999969
C    13.12999916  15.92000008  47.88999939
C    23.11000061  14.57999992  47.02000046
H    23.34588051  14.86747932  48.04460526
H    18.38999939  14.37999916  49.40999985
H    17.25000000  16.32999992  44.88999939
H    19.62000084  16.26000023  44.27000046
H    21.94999886  15.34000015  44.56999969
H    20.86999893  14.28999996  48.72000122
H    12.61999989  15.72999954  48.82999802
H    23.78000069  15.21000004  46.43000031
H    23.40999985  13.53000069  46.90999985
S    12.05000019  17.25000000  50.81999969
C     9.22999954  17.32999992  51.38999939
C    10.55999947  17.20000076  51.83000183
C    10.80000019  16.84000015  53.20000076
C     9.77999973  16.65999985  54.06999969
C     8.47999954  16.90000153  53.73000336
C     7.39000034  16.94000053  54.65999985
C     6.11999989  17.17000008  54.22999954
C     5.84000015  17.60000038  52.90000153
C     6.84000015  17.64999962  51.95999908
C     8.17000008  17.27000046  52.32999802
C    12.28000069  16.73999977  53.43999863
C    13.04999924  16.90999985  52.22999954
C    14.40999985  16.72999954  52.21000290
C     4.48000002  18.09000015  52.58999634
H     4.02281094  17.38343430  51.89728928
H     9.09000015  17.79000092  50.41999817
H    10.05000019  16.42000008  55.10000229
H     7.49000025  16.70999908  55.70999908
H     5.32000017  17.13999939  54.94999695
H     6.63000011  17.93000031  50.93000031
H    15.06999969  16.79000092  51.35000229
H     3.93000007  18.30000114  53.50999832
H     4.39000034  19.07999992  52.11999893
S    15.31999969  15.77999973  55.93999863
C    18.02000046  15.46000004  55.28999710
C    16.72999954  15.86999989  54.85000229
C    16.45000076  16.15999985  53.54000092
C    17.46999931  16.28000069  52.57999802
C    18.76000023  15.86999989  52.95999908
C    19.79999924  15.85000038  52.04000092
C    21.00000000  15.26999950  52.31999969
C    21.25000000  14.68999958  53.61000061
C    20.30999947  14.68999958  54.58000183
C    19.03000069  15.31000042  54.29999924
C    15.03999901  16.34000015  53.39000320
C    14.29999924  16.18000031  54.56999969
C    12.94000053  16.28999901  54.61999893
C    22.67000008  14.34000015  53.94000244
H    22.94102097  14.81785107  54.88143921
H    18.20999908  15.17000008  56.31999969
H    17.22999954  16.64999962  51.59000015
H    19.52000046  16.05999947  51.00999832
H    21.76000214  15.06999969  51.56000137
H    20.52999878  14.26000023  55.54999924
H    12.30000019  15.90000057  55.40999985
H    23.29999924  14.53999996  53.06999969
H    22.65000153  13.25000000  54.02000046
