96

S    12.20999908  16.68000031  44.00000000
C     9.51000023  17.15999985  44.84000397
C    10.78999996  16.61000061  45.02999878
C    11.06999969  16.21999931  46.33999634
C    10.06999969  16.13000107  47.36999893
C     8.80999947  16.57999992  47.11999893
C     7.76999998  16.47999954  48.06999969
C     6.54999971  16.95000076  47.77999878
C     6.28999996  17.61999893  46.56000137
C     7.23000002  17.73999977  45.61000061
C     8.50000000  17.17000008  45.89000320
C    12.50000000  16.03000069  46.50000000
C    13.23999977  16.29999924  45.31000137
C    14.56999969  16.26000023  45.20999908
C     4.94999981  18.04999924  46.16000366
H     4.61261606  17.51458549  45.27253342
H     9.27999973  17.63000107  43.88999939
H    10.34999943  15.84000015  48.37999725
H     8.13000011  16.03000069  48.99000168
H     5.73000002  16.80999947  48.47999954
H     7.07999992  18.20999908  44.64000320
H    15.01000023  16.15999985  44.22000122
H     4.21999979  17.94000053  46.97000122
H     4.88999987  19.10000038  45.86000061
S    15.67000008  15.36999893  48.88000107
C    18.22000122  14.63000107  48.06999969
C    17.06999969  15.25000000  47.77999878
C    16.69000053  15.59999943  46.46999741
C    17.68000031  15.54999924  45.47000122
C    18.97999954  15.26000023  45.79999924
C    20.10999870  15.55999947  44.97000122
C    21.40000153  15.29000092  45.31000137
C    21.71999931  14.67000008  46.62000275
C    20.65000153  14.52999973  47.48000336
C    19.29999924  14.73000050  47.11999893
C    15.31999969  15.97000027  46.36000061
C    14.57999992  15.80000019  47.61000061
C    13.22000027  15.73999977  47.70999908
C    23.13999939  14.34999943  47.04000092
H    23.57735252  15.10853195  47.68919373
H    18.40999985  14.14000034  49.02000046
H    17.45000076  15.65999985  44.40999985
H    19.80999947  15.88999939  43.97999573
H    22.21999931  15.38000011  44.59999847
H    20.65999985  14.04999924  48.46000290
H    12.72999954  15.34999943  48.60000229
H    23.81000137  14.13000011  46.20999908
H    23.09999847  13.38999939  47.57999802
S    16.10000038  12.48999977  52.36000061
C    18.68000031  12.18999958  51.42000198
C    17.31999969  12.07999992  51.18000031
C    16.82999992  11.64000034  49.93999863
C    17.78000069  11.39999962  48.93000031
C    19.14999962  11.25000000  49.20999908
C    20.05000114  11.00000000  48.13000107
C    21.38000107  10.93999958  48.36999893
C    21.86000061  11.18000031  49.68999863
C    21.02999878  11.67000008  50.66999817
C    19.61000061  11.64999962  50.45999908
C    15.36000061  11.84999943  49.86999893
C    14.84000015  12.23999977  51.13999939
C    13.47000027  12.56000042  51.22000122
C    23.22999954  10.77000046  50.13999939
H    23.47541618  11.15671635  51.12910080
H    19.09000015  12.46999931  52.37999725
H    17.46000099  11.23000050  47.90999985
H    19.62000084  10.84000015  47.15000153
H    22.06999969  10.59999943  47.58999634
H    21.37000084  11.87000084  51.68000031
H    13.04999924  12.89000034  52.16999817
H    23.40999985   9.68000031  50.11000061
H    23.95000076  11.25000000  49.47000122
S    12.18000031  12.31999969  47.42000198
C     9.39000034  12.76000023  48.11000061
C    10.72999954  12.76000023  48.50000000
C    11.21999931  12.88000011  49.85000229
C    10.19000053  13.10999966  50.76000214
C     8.78999996  13.25000000  50.38000107
C     7.78999996  13.56999969  51.33999634
C     6.48999977  13.68000031  50.93000031
C     6.12999964  13.53999996  49.55999756
C     7.09000015  13.15999985  48.63999939
C     8.40999985  13.09000015  49.02999878
C    12.67000008  12.64999962  50.05000305
C    13.25000000  12.20000076  48.80000305
C    14.53999996  11.82999992  48.73000336
C     4.67000008  13.94999981  49.27000046
H     4.41157341  13.72028732  48.23629379
H     9.03999996  12.56999969  47.09999847
H    10.42000008  13.01000023  51.81000137
H     8.10999966  13.80000019  52.35000229
H     5.73999977  14.01999950  51.63000107
H     6.85999966  13.15999985  47.57999802
H    14.93999958  11.39999962  47.81000137
H     4.50000000  14.96999931  49.61999893
H     4.02999973  13.31999969  49.91000366
