96

S    12.35000038  16.45000076  43.87000275
C     9.72999954  16.80999947  44.72999954
C    11.05999947  16.31999969  44.99000168
C    11.47999954  15.88000107  46.30000305
C    10.55999947  15.78999996  47.28000259
C     9.19000053  16.15999985  47.06999969
C     8.23000050  16.13000107  48.13999939
C     6.90000010  16.46999931  47.91999817
C     6.48000002  16.87000084  46.63999939
C     7.40000010  17.07999992  45.65000153
C     8.76999950  16.69999886  45.80999756
C    12.92000008  15.85000038  46.47999573
C    13.55999947  16.13999939  45.25000000
C    14.93999958  16.21000099  45.13999939
C     5.01999950  17.13000107  46.36000061
H     4.80294132  17.22102547  45.29571533
H     9.30000019  17.25000000  43.82999802
H    10.76000023  15.50000000  48.30999756
H     8.65999985  15.92000008  49.10999680
H     6.05999994  16.25000000  48.56999969
H     7.13999987  17.60000038  44.72999954
H    15.46000004  16.42000008  44.20999908
H     4.26999998  16.45000076  46.79999924
H     4.77999973  18.02999878  46.93000031
S    15.93999958  15.26000023  48.90999603
C    18.60999870  14.70999908  48.16999817
C    17.35999870  15.15999985  47.85999680
C    17.07999992  15.65999985  46.52999878
C    18.04999924  15.82999992  45.58000183
C    19.34000015  15.44999981  45.89000320
C    20.42000008  15.67999935  44.93999863
C    21.67000008  15.10000038  45.20999908
C    21.94000053  14.51000023  46.51000214
C    20.90999985  14.45000076  47.37999725
C    19.59000015  14.82999992  47.15000153
C    15.64000034  15.98000050  46.33999634
C    15.00000000  15.80000019  47.58999634
C    13.66000080  15.60999966  47.62000275
C    23.32999992  14.25000000  46.91999817
H    23.57142639  14.66184139  47.89989471
H    18.89999962  14.27999973  49.13000107
H    17.93000031  16.36000061  44.64000320
H    20.13999939  15.92000008  43.92000198
H    22.44999886  15.19000053  44.45000076
H    21.11000061  14.14999962  48.40999985
H    13.12000084  15.31999969  48.52000427
H    23.88999939  14.65000057  46.05999756
H    23.52000046  13.17999935  47.02999878
S    16.13999939  12.79999924  51.90000153
C    18.68999863  12.05999947  51.25000000
C    17.35999870  12.10999966  50.89000320
C    16.82999992  11.64999962  49.68000031
C    17.78000069  11.18000031  48.74000168
C    19.12999916  11.13000011  49.09000015
C    20.09000015  10.65999985  48.16999817
C    21.44000053  10.59999943  48.50000000
C    21.90000153  10.98000050  49.73999786
C    20.98999977  11.46000004  50.68000031
C    19.67000008  11.51000023  50.35999680
C    15.42000008  11.79999924  49.52999878
C    14.89999962  12.42000008  50.72000122
C    13.53999996  12.81000042  50.84999847
C    23.31999969  10.78999996  50.14999771
H    23.54153824  10.83846092  51.21614456
H    18.96000099  12.64999962  52.12999725
H    17.43000031  10.90000057  47.75000000
H    19.64999962  10.34000015  47.22999954
H    22.13999939  10.46000004  47.68000031
H    21.30000114  11.84999943  51.65000153
H    13.07999992  13.30999947  51.70000076
H    23.51000023   9.76000023  49.82999802
H    23.98999977  11.46999931  49.61999893
S    12.02000046  11.78999996  47.30999756
C     9.39999962  12.48000050  48.09000015
C    10.73999977  12.43000031  48.40000153
C    11.30000019  12.74000072  49.65999985
C    10.39000034  13.22000027  50.58000183
C     9.01000023  13.09999943  50.38999939
C     8.10999966  13.50999928  51.35000229
C     6.78999996  13.71000099  51.07999802
C     6.24000025  13.23999977  49.84000397
C     7.05999947  12.53999901  48.95999908
C     8.51000023  12.64000034  49.13999939
C    12.71000004  12.53999901  49.72000122
C    13.25000000  11.90999985  48.52000427
C    14.56999969  11.51000023  48.44999695
C     4.77999973  13.45999908  49.50000000
H     4.65655708  13.34341526  48.42330551
H     9.11000061  12.13999939  47.09000015
H    10.77000046  13.55999947  51.53999710
H     8.61999989  13.89999962  52.22999954
H     6.19000006  14.35999966  51.70999908
H     6.70000029  12.18999958  48.00000000
H    14.93000031  11.02000046  47.55000305
H     4.65000010  14.51000023  49.77000427
H     4.09999990  12.88000011  50.13999939
