96

S    12.72999954  16.61000061  44.22000122
C    10.03000069  16.92000008  44.86999893
C    11.28000069  16.46000099  45.20999908
C    11.59000015  16.05999947  46.52000046
C    10.57999992  15.90000057  47.41000366
C     9.25000000  16.26000023  47.06999969
C     8.19999981  16.15999985  48.02999878
C     6.93000031  16.61999893  47.75000000
C     6.56000042  17.07999992  46.44000244
C     7.59000015  17.15999985  45.48999786
C     8.97000027  16.80999947  45.77000046
C    13.03999996  16.02000046  46.70000076
C    13.71999931  16.38000107  45.56000137
C    15.11999989  16.40999985  45.50000000
C     5.09999990  17.39999962  46.13999939
H     4.73528862  16.99807358  45.19472504
H     9.76000023  17.36999893  43.92000198
H    10.70000076  15.32999992  48.33000183
H     8.36000061  15.62000084  48.95999908
H     6.28000021  16.77999878  48.60000229
H     7.36000013  17.56000137  44.50000000
H    15.69000053  16.48999977  44.58000183
H     4.42000008  17.18000031  46.97000122
H     5.09000015  18.50000000  46.14999771
S    16.17000008  15.27999973  49.09999847
C    18.78000069  14.84000015  48.33000183
C    17.57999992  15.34000015  48.04000092
C    17.27000046  15.90000057  46.79999924
C    18.25000000  16.02000046  45.79999924
C    19.52999878  15.62000084  46.06999969
C    20.58000183  15.67000008  45.14999771
C    21.81999969  15.19999981  45.47999954
C    22.04000092  14.47999954  46.66999817
C    21.04999924  14.47000027  47.60000229
C    19.78999901  15.00000000  47.36000061
C    15.81999969  16.15999985  46.68000031
C    15.14000034  15.77999973  47.83000183
C    13.73000050  15.67000008  47.81000137
C    23.45000076  14.04999924  47.09000015
H    23.66559410  14.31589890  48.12485123
H    18.97999954  14.32999992  49.27999878
H    17.93000031  16.46000099  44.86000061
H    20.38000107  15.95999908  44.13000107
H    22.63000107  15.36000061  44.77000427
H    21.21999931  14.17000008  48.62999725
H    13.25000000  15.51000023  48.76999664
H    24.21999931  14.51000023  46.45999908
H    23.52999878  12.96000004  47.22999954
S    11.92000008  16.84000015  50.61999893
C     9.30999947  17.14999962  51.50000000
C    10.57999992  16.73999977  51.72000122
C    10.98999977  16.17000008  53.01000214
C     9.98999977  16.03000069  54.00000000
C     8.64999962  16.39000130  53.79000092
C     7.67000008  16.18000031  54.73999786
C     6.38999987  16.47999954  54.43999863
C     6.05000019  17.09000015  53.20000076
C     7.07000017  17.38999939  52.30999756
C     8.36999989  17.10000038  52.54000092
C    12.38999939  15.98000050  53.11000061
C    13.05999947  16.40999985  51.97999954
C    14.44000053  16.48999977  51.90000153
C     4.61999989  17.61000061  53.02000046
H     4.13721991  17.13421631  52.16638947
H     9.06000042  17.59000015  50.54000092
H    10.17000008  15.44000053  54.88999939
H     7.79999971  15.64000034  55.68000031
H     5.68000031  16.44000053  55.26000214
H     6.83000040  17.72999954  51.30000305
H    14.78999996  16.84000015  50.93999863
H     4.05999994  17.23999977  53.88999939
H     4.56999969  18.70000076  52.91999817
S    15.52000046  15.17000008  55.51000214
C    18.20000076  15.03000069  54.88999939
C    16.90999985  15.34000015  54.54000092
C    16.59000015  15.88000107  53.26000214
C    17.61999893  15.95999908  52.34000397
C    18.95000076  15.62999916  52.65999603
C    20.03999901  15.65000057  51.73999786
C    21.25000000  15.11000061  51.97999954
C    21.53000069  14.65999985  53.34999847
C    20.55999947  14.68999958  54.29000092
C    19.23999977  15.11000061  53.99000168
C    15.18000031  16.14999962  53.04999924
C    14.50000000  15.72000027  54.19000244
C    13.14000034  15.60999966  54.27999878
C    22.93999863  14.27000046  53.74000168
H    23.16897392  14.73510361  54.69882965
H    18.39999962  14.57999992  55.86000061
H    17.35000038  16.25000000  51.32999802
H    19.82999992  16.07999992  50.77000046
H    21.98999786  15.15999985  51.19999695
H    20.75000000  14.34000015  55.30000305
H    12.56000042  15.40999985  55.17000198
H    23.72999954  14.52000046  53.02000046
H    22.89999962  13.17000008  53.77999878
