96

S    12.51999950  16.73999977  44.13000107
C     9.85999966  17.19000053  44.85000229
C    11.11999989  16.64999962  45.20000076
C    11.38000011  16.10000038  46.47999573
C    10.36999893  16.10000038  47.43000031
C     9.07999992  16.55999947  47.15000153
C     8.00000000  16.48999977  48.06000137
C     6.76999998  16.93000031  47.70999908
C     6.51999998  17.56999969  46.47999573
C     7.59000015  17.75000000  45.61000061
C     8.85000038  17.13000107  45.86000061
C    12.81999969  15.93999958  46.65999985
C    13.48999977  16.21000099  45.52000046
C    14.91000080  16.29999924  45.59000015
C     5.07999992  17.98999977  46.12999725
H     4.65218782  17.30970955  45.39360046
H     9.63000011  17.57999992  43.86000061
H    10.55999947  15.71000004  48.43000031
H     8.07999992  16.02000046  49.02999878
H     6.00000000  16.63999939  48.41999817
H     7.36000013  18.19000053  44.64000320
H    15.50000000  16.45000076  44.68999863
H     4.46000004  18.18000031  47.01000214
H     5.19000006  18.95000076  45.61000061
S    15.95000076  15.15999985  49.15000153
C    18.64999962  14.94999981  48.53000259
C    17.36999893  15.39000034  48.15000153
C    17.09000015  15.92000008  46.93999863
C    18.06999969  16.01000023  46.00000000
C    19.37000084  15.44999981  46.25000000
C    20.35000038  15.46000004  45.26000214
C    21.60000038  14.92000008  45.52000046
C    21.90000153  14.42000008  46.86000061
C    20.92000008  14.40000057  47.85999680
C    19.63999939  14.96000099  47.58999634
C    15.69000053  16.04999924  46.77000046
C    14.93000031  15.67000008  47.83000183
C    13.50000000  15.71000004  47.90000153
C    23.31999969  14.09999943  47.16999817
H    23.55083275  14.43903255  48.17988586
H    18.76000023  14.37999916  49.45000076
H    17.81999969  16.44000053  45.04000092
H    20.17000008  15.84000015  44.26000214
H    22.32999992  14.78000069  44.72999954
H    21.14999962  14.07999992  48.88000107
H    13.02000046  15.54999924  48.86000061
H    24.04999924  14.52000046  46.45999908
H    23.38000107  13.00000000  47.22000122
S    12.13999939  16.77999878  50.79000092
C     9.42000008  17.12000084  51.32999802
C    10.71000004  16.87000084  51.79999924
C    11.07999992  16.56999969  53.09000015
C    10.03999901  16.31999969  54.02000046
C     8.75000000  16.67000008  53.57999802
C     7.69000006  16.72000122  54.52999878
C     6.44000006  17.32999992  54.33000183
C     6.12999964  17.70000076  52.98999786
C     7.03000021  17.61999893  52.00000000
C     8.32999992  17.13999939  52.22999954
C    12.50000000  16.31000137  53.36999893
C    13.26000023  16.53000069  52.18999863
C    14.63999939  16.61999893  52.15000153
C     4.69000006  18.07999992  52.64999771
H     4.29130840  17.62631607  51.74263000
H     9.35999966  17.57999992  50.34999847
H    10.36999893  16.17000008  55.04000092
H     7.90999985  16.34000015  55.52999878
H     5.88999987  17.56999969  55.24000168
H     6.71999979  17.92000008  51.00000000
H    15.19000053  16.87000084  51.25000000
H     4.03999996  17.92000008  53.52000427
H     4.67000008  19.17000008  52.56999969
S    15.65000057  15.29000092  55.76000214
C    18.15999985  14.94999981  54.95999908
C    17.02999878  15.50000000  54.65999985
C    16.77000046  16.11999893  53.44999695
C    17.75000000  16.17000008  52.48000336
C    19.01000023  15.62000084  52.80000305
C    20.03999901  15.62999916  51.81000137
C    21.28999901  15.10000038  52.15999985
C    21.55999947  14.85000038  53.50999832
C    20.50000000  14.67000008  54.43000031
C    19.22999954  15.05000019  54.06999969
C    15.32999992  16.29999924  53.33000183
C    14.61999989  15.88000107  54.43000031
C    13.21000004  15.95999908  54.52999878
C    22.93999863  14.46000004  54.03999710
H    23.20844269  15.04767227  54.91788101
H    18.30999947  14.39000034  55.87999725
H    17.43999863  16.34000015  51.45000076
H    19.85000038  16.13000107  50.86000061
H    22.09000015  15.11000061  51.43000031
H    20.65000153  14.23999977  55.41999817
H    12.58999920  15.85000038  55.41999817
H    23.74000168  14.68999958  53.33000183
H    22.98000145  13.38000107  54.25000000
