96

S    11.82000065  17.12000084  44.22999954
C     9.13999939  17.28999901  45.00000000
C    10.39000034  16.79999924  45.22999573
C    10.84000015  16.46000099  46.51000214
C     9.81999969  16.28999901  47.43999863
C     8.46000004  16.68000031  47.23999786
C     7.42000008  16.46999931  48.18000031
C     6.14000034  16.77999878  47.90000153
C     5.86999989  17.56000137  46.73999786
C     6.90999985  17.79999924  45.80999756
C     8.17000008  17.20000076  45.94999695
C    12.22000027  16.18999863  46.62000275
C    12.89999962  16.68000031  45.48999786
C    14.27999973  16.65999985  45.37000275
C     4.46999979  17.90999985  46.35000229
H     4.17988205  17.30000877  45.49452591
H     8.97000027  17.81999969  44.06999969
H    10.01999950  15.77000046  48.36999893
H     7.68000031  15.93999958  49.09999847
H     5.32000017  16.61000061  48.57999802
H     6.63000011  18.30999947  44.88999939
H    14.73999977  16.87999916  44.40999985
H     3.86000013  17.65999985  47.22000122
H     4.33999968  18.98999977  46.19999695
S    15.39000034  15.36999893  49.03999710
C    18.05999947  15.11000061  48.25000000
C    16.76000023  15.57000065  47.98999786
C    16.43000031  16.13999939  46.72000122
C    17.42000008  16.31999969  45.79000092
C    18.76000023  15.98000050  46.10000229
C    19.85000038  16.14999962  45.17000198
C    21.04999924  15.44999981  45.40000153
C    21.35999870  14.78000069  46.63999939
C    20.36999893  14.80999947  47.63999939
C    19.04999924  15.26999950  47.30999756
C    15.01999950  16.35000038  46.51000214
C    14.32999992  15.90000057  47.69000244
C    12.96000004  15.75000000  47.70999908
C    22.75000000  14.32999992  46.97999954
H    23.16283417  14.86596107  47.83464050
H    18.38000107  14.65999985  49.19000244
H    17.14999962  16.77999878  44.84000397
H    19.70000076  16.53000069  44.15999985
H    21.84999847  15.60999966  44.68999863
H    20.61000061  14.32000065  48.57999802
H    12.53000069  15.39999962  48.64999771
H    23.38999939  14.63000107  46.13999939
H    22.88999939  13.27000046  47.21000290
S    12.23000050  16.61999893  50.86999893
C     9.55999947  16.97999954  51.69000244
C    10.82999992  16.60000038  51.95999908
C    11.17000008  16.21999931  53.34000015
C    10.15999985  16.25000000  54.29000092
C     8.82000065  16.72999954  54.01000214
C     7.75000000  16.65999985  54.93000031
C     6.50000000  17.11000061  54.71000290
C     6.23000050  17.59000015  53.36999893
C     7.22000027  17.63000107  52.44999695
C     8.52000046  17.11000061  52.64999771
C    12.57999992  16.15999985  53.47000122
C    13.27999973  16.31999969  52.22000122
C    14.68000031  16.28999901  52.12999725
C     4.79999971  17.86999893  53.04000092
H     4.35517311  17.30320358  52.22209167
H     9.43000031  17.28999901  50.65999985
H    10.32999992  15.85999966  55.28999710
H     8.03999996  16.28999901  55.90999985
H     5.69999981  16.97000122  55.43000031
H     6.96000004  17.98999977  51.45999908
H    15.26999950  16.53000069  51.25000000
H     4.21000004  17.65999985  53.95000076
H     4.76999998  18.96000099  52.88999939
S    15.71000004  15.57999992  55.93999863
C    18.29000092  15.11999989  55.21999741
C    17.11000061  15.62000084  54.80999756
C    16.86000061  15.98999977  53.44999695
C    17.81999969  15.92000008  52.45999908
C    19.11000061  15.50000000  52.85999680
C    20.13999939  15.31999969  51.88999939
C    21.35999870  14.86999989  52.29000092
C    21.65999985  14.63000107  53.66000366
C    20.69000053  14.73000050  54.61000061
C    19.37000084  15.11000061  54.25000000
C    15.43000031  16.10000038  53.34000015
C    14.68999958  15.93999958  54.51000214
C    13.35000038  15.98000050  54.54000092
C    23.05999947  14.25000000  54.06000137
H    23.40063286  14.66310883  55.00942612
H    18.35000038  14.80999947  56.25999832
H    17.51000023  15.88999939  51.42000198
H    20.06999969  15.62999916  50.84999847
H    22.18000031  14.70000076  51.59000015
H    20.88000107  14.37000084  55.61999893
H    12.79999924  15.80000019  55.45999908
H    23.77000046  14.55000019  53.27999878
H    23.05999947  13.15999985  54.19000244
