96

S    12.25999928  16.88999939  44.22000122
C     9.52000046  17.35999870  44.99000168
C    10.81999969  16.88999939  45.31000137
C    11.06999969  16.34000015  46.63999939
C    10.05000019  16.22999954  47.57999802
C     8.80000019  16.75000000  47.22000122
C     7.77999973  16.65999985  48.11999893
C     6.50000000  17.17000008  47.80000305
C     6.15000010  17.68000031  46.50000000
C     7.11000013  17.70000076  45.56000137
C     8.48999977  17.22999954  45.90000153
C    12.48999977  16.14999962  46.84000015
C    13.22999954  16.38000107  45.65000153
C    14.65999985  16.31999969  45.61999893
C     4.71000004  18.12999916  46.23000336
H     4.31978369  17.54112816  45.39990616
H     9.30000019  17.97999954  44.12000275
H    10.21000004  15.95999908  48.61999893
H     8.00000000  16.15999985  49.06000137
H     5.68000031  17.22999954  48.50000000
H     6.93000031  18.22000122  44.61999893
H    15.22999954  16.45000076  44.69999695
H     4.07000017  18.11000061  47.12999725
H     4.82999992  19.19000053  45.97999954
S    15.85999966  15.38000011  49.16999817
C    18.46999931  14.98000050  48.29000092
C    17.21999931  15.42000008  48.04000092
C    16.81999969  15.88999939  46.79000092
C    17.73999977  16.01000023  45.79999924
C    19.09000015  15.60999966  46.04999924
C    20.02000046  15.73999977  45.06000137
C    21.31000137  15.26999950  45.25000000
C    21.73999977  14.80999947  46.52999878
C    20.86000061  14.73000050  47.56000137
C    19.48999977  15.11000061  47.30999756
C    15.40999985  16.10000038  46.73999786
C    14.68999958  15.85999966  47.95000076
C    13.30000019  15.85000038  48.02999878
C    23.18000031  14.52000046  46.84999847
H    23.62742805  15.03034687  47.70290756
H    18.78000069  14.48999977  49.20999908
H    17.46000099  16.46000099  44.85000229
H    19.69000053  16.15999985  44.10999680
H    22.00000000  15.29000092  44.40999985
H    21.04999924  14.27999973  48.52000427
H    12.72999954  15.39999962  48.83999634
H    23.81999969  14.63999939  45.97000122
H    23.19000053  13.45000076  47.09000015
S    11.67000008  16.88999939  50.98999786
C     9.00000000  17.20000076  51.56999969
C    10.22999954  16.87000084  51.97000122
C    10.62000084  16.52000046  53.33000183
C     9.61999989  16.52000046  54.25000000
C     8.30000019  16.87999916  53.89999771
C     7.26999998  16.88999939  54.80999756
C     6.00000000  17.23999977  54.48999786
C     5.77000046  17.79999924  53.23999786
C     6.76999998  17.87999916  52.29000092
C     8.01999950  17.29999924  52.58999634
C    12.05999947  16.50000000  53.52000427
C    12.82999992  16.73999977  52.39999771
C    14.22000027  16.69000053  52.18000031
C     4.35999966  18.04999924  52.84000015
H     4.09070349  17.49723434  51.93998337
H     8.76999950  17.48999977  50.54999924
H     9.89999962  16.40999985  55.30000305
H     7.44000006  16.53000069  55.83000183
H     5.19000006  17.06999969  55.19000244
H     6.48999977  18.44000053  51.40999603
H    14.78999996  16.72999954  51.25999832
H     3.68000007  17.79000092  53.67000198
H     4.23999977  19.13999939  52.83000183
S    15.31000042  15.88999939  55.86000061
C    17.87999916  15.10000038  55.00000000
C    16.64999962  15.67999935  54.75000000
C    16.27000046  15.98999977  53.40000153
C    17.25000000  16.05999947  52.43000031
C    18.60000038  15.75000000  52.72999573
C    19.68000031  15.80000019  51.76000214
C    20.98999977  15.40999985  52.11999893
C    21.30000114  15.01999950  53.43000031
C    20.23999977  14.96999931  54.36999893
C    18.92000008  15.29000092  54.05000305
C    14.88999939  16.34000015  53.33000183
C    14.19999981  16.31999969  54.61000061
C    12.82999992  16.39000130  54.71000290
C    22.63999939  14.57999992  53.76999664
H    23.00319290  14.94319153  54.73139191
H    18.15999985  14.78999996  56.00000000
H    17.02000046  16.47999954  51.45000076
H    19.54000092  16.15999985  50.73999786
H    21.70999908  15.34000015  51.31000137
H    20.42000008  14.60999966  55.38000107
H    12.42000008  16.03999901  55.65999985
H    23.23999786  14.98000050  52.94000244
H    22.65999985  13.52000046  53.53000259
