96

S    12.34000015  16.95000076  44.45999908
C     9.68999958  17.35999870  45.08999634
C    10.95999908  16.94000053  45.52999878
C    11.23999977  16.35000038  46.79000092
C    10.22999954  16.29999924  47.68000031
C     8.92000008  16.75000000  47.31999969
C     7.86999989  16.68000031  48.20000076
C     6.58999968  17.23999977  47.95000076
C     6.30000019  17.70000076  46.65000153
C     7.36999989  17.82999992  45.75000000
C     8.64999962  17.29999924  46.04000092
C    12.67000008  16.06999969  46.91999817
C    13.40999985  16.36000061  45.73999786
C    14.75000000  16.44000053  45.70999908
C     4.92000008  18.20999908  46.24000168
H     4.54120398  17.60249519  45.41808319
H     9.50000000  17.67000008  44.06999969
H    10.39999962  15.80999947  48.63999939
H     8.01000023  16.32999992  49.22000122
H     5.86999989  17.31999969  48.75000000
H     7.18999958  18.36000061  44.80999756
H    15.29000092  16.77000046  44.82999802
H     4.13999987  18.09000015  47.00000000
H     4.94999981  19.27000046  45.94999695
S    15.82999992  15.14999962  49.38000107
C    18.53000069  14.77000046  48.59000397
C    17.20999908  15.14999962  48.27999878
C    16.84000015  15.75000000  47.00000000
C    17.86000061  16.03000069  46.11999893
C    19.13999939  15.53999996  46.38000107
C    20.12000084  15.75000000  45.38999939
C    21.40999985  15.46000004  45.63000107
C    21.78999901  14.80000019  46.86000061
C    20.86999893  14.47000027  47.81000137
C    19.50000000  14.84000015  47.63000107
C    15.44000053  15.95999908  46.86999893
C    14.70999908  15.60999966  48.06000137
C    13.34000015  15.65000057  48.06999969
C    23.22000122  14.46000004  47.15000153
H    23.48436356  14.86671352  48.12611389
H    18.75000000  14.40999985  49.59000015
H    17.67000008  16.46999931  45.13999939
H    19.70000076  16.25000000  44.52000046
H    22.17000008  15.69000053  44.88999939
H    21.11000061  13.81999969  48.63999939
H    12.81000042  15.32999992  48.96999741
H    23.88999939  14.84000015  46.37000275
H    23.28000069  13.36999989  47.08000183
S    12.13999939  17.28000069  50.94999695
C     9.39000034  17.68000031  51.59999847
C    10.67000008  17.19000053  51.88000107
C    10.93000031  16.54999924  53.18000031
C     9.85999966  16.18000031  53.96999741
C     8.53999996  16.70999908  53.77999878
C     7.42000008  16.45000076  54.58000183
C     6.17000008  16.95999908  54.34000015
C     6.01999998  17.78000069  53.18999863
C     7.04999971  18.01000023  52.35000229
C     8.32999992  17.48999977  52.58999634
C    12.39999962  16.34000015  53.47999954
C    13.19000053  16.67000008  52.34000397
C    14.60999966  16.62999916  52.29000092
C     4.61000013  18.20999908  52.81999969
H     4.23778963  17.63020897  51.97536850
H     9.22999954  18.29000092  50.72000122
H    10.05000019  15.69000053  54.93000031
H     7.62000036  15.71000004  55.35999680
H     5.36000013  16.59000015  54.97000122
H     6.94999981  18.60000038  51.44000244
H    15.13000011  16.82999992  51.36000061
H     3.84999990  18.15000153  53.61000061
H     4.63000011  19.27999878  52.58999634
S    15.53999996  15.31000042  55.84000015
C    18.20000076  14.78000069  55.20999908
C    16.95999908  15.26999950  54.89999771
C    16.70999908  15.88000107  53.60000229
C    17.71999931  15.95999908  52.68000031
C    19.03000069  15.48999977  53.02000046
C    20.05000114  15.47000027  52.02999878
C    21.28999901  14.98000050  52.36000061
C    21.47999954  14.42999935  53.60000229
C    20.52999878  14.42999935  54.55999756
C    19.22000122  14.88999939  54.27999878
C    15.26999950  16.25000000  53.41999817
C    14.50000000  15.98999977  54.55999756
C    13.07000065  16.04999924  54.68999863
C    22.95000076  14.14000034  54.00000000
H    23.18096733  14.65792465  54.93086624
H    18.36000061  14.35999966  56.19999695
H    17.64999962  16.39000130  51.69000244
H    19.84000015  15.90000057  51.04999924
H    22.11000061  14.91000080  51.65000153
H    20.88000107  14.18000031  55.56000137
H    12.56999969  15.80000019  55.61000061
H    23.57999992  14.22999954  53.11000061
H    22.89999962  13.03999996  54.00000000
