96

S    11.28999901  16.75000000  44.47999954
C     8.90999985  17.45000076  45.50000000
C    10.10000038  16.94000053  45.72000122
C    10.44999981  16.34000015  46.97000122
C     9.46000004  16.36999893  48.02000046
C     8.21000004  16.95000076  47.81999969
C     7.03999996  16.77999878  48.69999695
C     5.79999971  17.14999962  48.34000015
C     5.51000023  17.64000130  47.02999878
C     6.57000017  17.92000008  46.22000122
C     7.90999985  17.51000023  46.52000046
C    11.79999924  15.95000076  46.97000122
C    12.39999962  16.11999893  45.70000076
C    13.73999977  15.93999958  45.52999878
C     4.11000013  18.00000000  46.53999710
H     3.87370729  17.48445320  45.60914993
H     8.59000015  17.86999893  44.54999924
H     9.61000061  15.77000046  48.90999603
H     7.13999987  16.11999893  49.55999756
H     4.92000008  17.04000092  48.96999741
H     6.43000031  18.25000000  45.19000244
H    14.26000023  16.20000076  44.61999893
H     3.42999983  17.51000023  47.25999832
H     4.00999975  19.09000015  46.45999908
S    14.98000050  15.11000061  49.22999954
C    17.68000031  14.93000031  48.57999802
C    16.36999893  15.15999985  48.15999985
C    16.03000069  15.57000065  46.86999893
C    17.05999947  15.88999939  46.05999756
C    18.42000008  15.64000034  46.45999908
C    19.47999954  15.69000053  45.47999954
C    20.78000069  15.38000011  45.76000214
C    21.07999992  14.65999985  46.95999908
C    20.09000015  14.47000027  47.91999817
C    18.72999954  14.98999977  47.67000198
C    14.53999996  15.62000084  46.65999985
C    13.94000053  15.39999962  47.88999939
C    12.58999920  15.60999966  47.98999786
C    22.47999954  14.15999985  47.18000031
H    22.86986160  14.59239197  48.10149002
H    18.01000023  14.40000057  49.47000122
H    16.88999939  16.28000069  45.06000137
H    19.13999939  15.90999985  44.47000122
H    21.50000000  15.55999947  44.95999908
H    20.34000015  14.14999962  48.92000198
H    12.10999966  15.52000046  48.95999908
H    23.12999916  14.39000034  46.31999969
H    22.43000031  13.05999947  47.14000320
S    15.64000034  13.00000000  52.11000061
C    18.30000114  12.55000019  51.45999908
C    17.01000023  12.53000069  51.09000397
C    16.45000076  11.97999954  49.86999893
C    17.32999992  11.43000031  48.94000244
C    18.70000076  11.44999981  49.26000214
C    19.61000061  10.97000027  48.27999878
C    20.95000076  10.78999996  48.63999939
C    21.44000053  11.18999958  49.88999939
C    20.58000183  11.87000084  50.70000076
C    19.17000008  11.96000004  50.47000122
C    15.03999901  11.84999943  49.82999802
C    14.50000000  12.48999977  50.97000122
C    13.10999966  12.71999931  51.00000000
C    22.88999939  10.95000076  50.19000244
H    23.17303467  11.24010944  51.20184708
H    18.56999969  13.01000023  52.41000366
H    17.01000023  11.02000046  47.97999954
H    19.23999977  10.47999954  47.37999725
H    21.51000023  10.13000011  47.98999786
H    20.96999931  12.25999928  51.63999939
H    12.64000034  13.17999935  51.86999893
H    23.19999886   9.92999935  49.93999863
H    23.47999954  11.38000011  49.36999893
S    11.69999981  11.59999943  47.36999893
C     9.15000057  12.25999928  48.09999847
C    10.44999981  12.22000027  48.43000031
C    10.93999958  12.57999992  49.72000122
C    10.06000042  13.10999966  50.61999893
C     8.73000050  13.28999996  50.31000137
C     7.90999985  13.99000072  51.17000198
C     6.53999996  14.07999992  50.93000031
C     5.96000004  13.52000046  49.77000427
C     6.77999973  12.86999893  48.81999969
C     8.18000031  12.84000015  49.02000046
C    12.35999966  12.43000031  49.84000397
C    12.90999985  11.79999924  48.69999695
C    14.26000023  11.44999981  48.74000168
C     4.53000021  13.85000038  49.45999908
H     4.25867367  13.48334312  48.47002792
H     8.80999947  12.06999969  47.08000183
H    10.47999954  13.63000011  51.47999573
H     8.34999943  14.37999916  52.08000183
H     5.95000029  14.57999992  51.70000076
H     6.32999992  12.56999969  47.88000107
H    14.78999996  10.86999989  47.98999786
H     4.21999979  14.89999962  49.54999924
H     3.91999984  13.30999947  50.20000076
