96

S    12.25000000  16.72000122  43.82999802
C     9.52999973  17.20999908  44.64000320
C    10.80999947  16.72000122  44.84000397
C    11.17000008  16.21999931  46.16000366
C    10.15999985  16.10999870  47.11000061
C     8.90999985  16.69000053  46.97999954
C     7.88999987  16.46999931  47.90000153
C     6.57999992  16.98999977  47.75000000
C     6.25000000  17.61000061  46.50000000
C     7.23999977  17.72999954  45.52000046
C     8.59000015  17.27000046  45.72999954
C    12.63000011  16.22999954  46.42000198
C    13.31999969  16.39000130  45.17000198
C    14.65000057  16.29999924  45.15999603
C     4.79999971  17.89999962  46.16000366
H     4.45477962  17.13044548  45.46956253
H     9.27999973  17.92000008  43.86000061
H    10.40999985  15.50000000  47.97999954
H     7.99000025  15.73999977  48.68999863
H     5.72000027  16.62999916  48.29999924
H     6.98999977  18.04999924  44.51000214
H    15.08999920  16.26000023  44.16999817
H     4.19000006  17.88999939  47.06999969
H     4.73000002  18.89999962  45.72000122
S    15.67999935  15.36000061  48.89999771
C    18.37000084  14.77000046  48.16999817
C    17.10000038  15.24000072  47.81000137
C    16.72000122  15.71000004  46.46999741
C    17.73999977  15.67999935  45.51000214
C    18.96000099  15.19000053  45.77999878
C    19.97999954  15.11999989  44.79000092
C    21.25999832  14.72000027  45.07999802
C    21.70999908  14.50000000  46.39999771
C    20.76999855  14.52999973  47.36999893
C    19.36000061  14.78000069  47.12999725
C    15.36999893  16.03000069  46.31000137
C    14.70999908  15.97000027  47.50999832
C    13.35000038  16.06999969  47.60000229
C    23.13999939  14.30999947  46.84999847
H    23.38993645  14.84458542  47.76642990
H    18.60000038  14.42999935  49.16999817
H    17.59000015  15.88999939  44.45000076
H    19.84000015  15.31999969  43.73000336
H    21.97999954  14.50000000  44.31000137
H    21.14000130  14.42000008  48.37999725
H    12.76999950  15.85999966  48.48999786
H    23.69999886  14.81999969  46.05999756
H    23.38000107  13.23999977  46.90000153
S    16.14999962  12.84999943  52.00000000
C    18.65999985  12.02000046  51.58000183
C    17.35999870  12.13999939  51.11999893
C    16.84999847  11.75000000  49.85000229
C    17.87999916  11.36000061  48.95000076
C    19.19999886  11.23999977  49.34999847
C    20.15000153  10.65000057  48.50999832
C    21.44000053  10.57000065  48.79000092
C    21.90000153  11.06999969  50.04000092
C    21.04999924  11.68000031  50.87999725
C    19.65999985  11.65999985  50.65999985
C    15.44000053  11.92999935  49.62999725
C    14.88000011  12.57999992  50.77999878
C    13.57999992  12.93000031  50.84999847
C    23.40999985  11.13999939  50.44000244
H    23.57186127  10.92184067  51.49560928
H    18.96999931  12.42000008  52.55000305
H    17.69000053  10.85999966  48.00000000
H    19.82999992  10.26999950  47.54000092
H    22.13999939  10.24000072  48.02999878
H    21.32999802  12.07999992  51.84999847
H    13.15000057  13.45999908  51.70000076
H    23.95999908  10.36999893  49.87999725
H    23.81999969  12.13000107  50.20000076
S    11.92999935  12.01000023  47.38999939
C     9.36999989  12.69999981  48.27999878
C    10.72999954  12.55000019  48.50000000
C    11.28999901  12.96000004  49.69999695
C    10.43000031  13.38000107  50.72000122
C     9.02000046  13.47000027  50.51000214
C     8.14999962  14.04999924  51.40999603
C     6.80999994  14.04999924  51.25000000
C     6.25999975  13.66000080  50.00999832
C     7.05999947  13.17000008  49.03999710
C     8.47999954  13.07999992  49.26000214
C    12.75000000  12.76999950  49.72999954
C    13.28999996  12.20999908  48.57999802
C    14.68000031  11.82999992  48.55999756
C     4.74000025  14.04999924  49.68000031
H     4.42418575  13.52135372  48.78061295
H     8.97999954  12.42000008  47.29999924
H    10.72999954  13.61999989  51.73999786
H     8.57999992  14.51000023  52.29999924
H     6.17999983  14.40999985  52.05999756
H     6.63000011  13.03999996  48.04999924
H    15.11000061  11.28000069  47.71999741
H     4.63999987  15.13000011  49.52000046
H     4.11000013  13.89999962  50.56000137
