96

S    12.51999950  16.73999977  44.13000107
C     9.85999966  17.19000053  44.85000229
C    11.11999989  16.64999962  45.20000076
C    11.38000011  16.10000038  46.47999573
C    10.36999893  16.10000038  47.43000031
C     9.07999992  16.55999947  47.15000153
C     8.00000000  16.48999977  48.06000137
C     6.76999998  16.93000031  47.70999908
C     6.51999998  17.56999969  46.47999573
C     7.59000015  17.75000000  45.61000061
C     8.85000038  17.13000107  45.86000061
C    12.81999969  15.93999958  46.65999985
C    13.48999977  16.21000099  45.52000046
C    14.91000080  16.29999924  45.59000015
C     5.07999992  17.98999977  46.12999725
H     4.65218782  17.30970955  45.39360046
H     9.63000011  17.57999992  43.86000061
H    10.55999947  15.71000004  48.43000031
H     8.07999992  16.02000046  49.02999878
H     6.00000000  16.63999939  48.41999817
H     7.36000013  18.19000053  44.64000320
H    15.50000000  16.45000076  44.68999863
H     4.46000004  18.18000031  47.01000214
H     5.19000006  18.95000076  45.61000061
S    15.95000076  15.15999985  49.15000153
C    18.64999962  14.94999981  48.53000259
C    17.36999893  15.39000034  48.15000153
C    17.09000015  15.92000008  46.93999863
C    18.06999969  16.01000023  46.00000000
C    19.37000084  15.44999981  46.25000000
C    20.35000038  15.46000004  45.26000214
C    21.60000038  14.92000008  45.52000046
C    21.90000153  14.42000008  46.86000061
C    20.92000008  14.40000057  47.85999680
C    19.63999939  14.96000099  47.58999634
C    15.69000053  16.04999924  46.77000046
C    14.93000031  15.67000008  47.83000183
C    13.50000000  15.71000004  47.90000153
C    23.31999969  14.09999943  47.16999817
H    23.55083275  14.43903255  48.17988586
H    18.76000023  14.37999916  49.45000076
H    17.81999969  16.44000053  45.04000092
H    20.17000008  15.84000015  44.26000214
H    22.32999992  14.78000069  44.72999954
H    21.14999962  14.07999992  48.88000107
H    13.02000046  15.54999924  48.86000061
H    24.04999924  14.52000046  46.45999908
H    23.38000107  13.00000000  47.22000122
S    16.07999992  12.61999989  52.04000092
C    18.75000000  12.25000000  51.16000366
C    17.39999962  12.20000076  50.93000031
C    16.95999908  11.79999924  49.59999847
C    17.86000061  11.28999901  48.69999695
C    19.25000000  11.28000069  49.01000214
C    20.26000023  10.78999996  48.13999939
C    21.59000015  10.71000004  48.47000122
C    22.06000137  11.00000000  49.75999832
C    21.18000031  11.68000031  50.54999924
C    19.73999977  11.80999947  50.27000046
C    15.52999973  12.06999969  49.47000122
C    14.93000031  12.56999969  50.68000031
C    13.55000019  12.84999943  50.79999924
C    23.45999908  10.85999966  50.19000244
H    23.59463692  11.25682545  51.19623566
H    19.05999947  12.46999931  52.18000031
H    17.68000031  10.77000046  47.76000214
H    19.93000031  10.42000008  47.16999817
H    22.27999878  10.24000072  47.77999878
H    21.50000000  11.87000084  51.56999969
H    13.09999943  13.26000023  51.70000076
H    23.68000031   9.78999996  50.12000275
H    24.11999893  11.36999989  49.47999954
S    12.15000057  11.95000076  47.29999924
C     9.51000023  12.56000042  48.01000214
C    10.81999969  12.44999981  48.33000183
C    11.31000042  12.86000061  49.62999725
C    10.47999954  13.32999992  50.58000183
C     9.10000038  13.28999996  50.35999680
C     8.14999962  13.67000008  51.38000107
C     6.81999969  13.81000042  51.06999969
C     6.35999966  13.68999958  49.75999832
C     7.22000027  13.26000023  48.74000168
C     8.56999969  12.96000004  49.02999878
C    12.79000092  12.69000053  49.72000122
C    13.35000038  12.22000027  48.55999756
C    14.65999985  11.85999966  48.39000320
C     4.92000008  13.81000042  49.52000046
H     4.68594456  13.63268471  48.47029877
H     9.19000053  12.44999981  46.97999954
H    10.78999996  13.67000008  51.56999969
H     8.43999958  14.13000011  52.31999969
H     6.14000034  14.30999947  51.76000214
H     6.94999981  13.02000046  47.70999908
H    15.03000069  11.46999931  47.43999863
H     4.61999989  14.81999969  49.81999969
H     4.46000004  13.04999924  50.17000198
