96

S    12.28999996  17.05999947  44.26000214
C     9.61000061  17.40999985  45.01999664
C    10.88999939  17.00000000  45.34999847
C    11.23000050  16.65999985  46.69000244
C    10.26000023  16.59000015  47.64999771
C     8.88000011  16.87999916  47.29999924
C     7.83999968  16.97999954  48.27000046
C     6.63999987  17.61000061  47.94000244
C     6.43000031  17.97999954  46.62000275
C     7.35000038  17.93000031  45.63999939
C     8.56999969  17.32999992  45.93000031
C    12.63000011  16.36999893  46.83000183
C    13.32999992  16.72999954  45.61999893
C    14.70000076  16.68000031  45.52000046
C     5.09000015  18.42000008  46.23000336
H     4.71527672  17.89538765  45.35110474
H     9.38000011  17.72999954  44.01000214
H    10.43000031  16.40999985  48.70999908
H     8.11999989  16.72999954  49.29000092
H     5.82000017  17.76000023  48.62999725
H     7.23000002  18.30000114  44.61999893
H    15.19999981  16.69000053  44.55999756
H     4.42000008  18.20999908  47.06999969
H     5.12000036  19.51000023  46.13999939
S    15.85999966  15.34999943  49.02999878
C    18.52000046  15.21999931  48.43000031
C    17.26000023  15.57000065  48.04000092
C    16.88999939  16.02000046  46.76000214
C    17.86000061  16.14999962  45.80999756
C    19.17000008  15.77000046  46.13999939
C    20.20999908  15.90999985  45.15999603
C    21.48999977  15.48999977  45.38999939
C    21.80999947  15.07999992  46.72000122
C    20.86999893  14.85999966  47.68000031
C    19.52000046  15.21999931  47.39999771
C    15.44000053  16.28999901  46.59999847
C    14.78999996  15.95999908  47.77999878
C    13.38000107  15.95999908  47.87000275
C    23.32999992  14.88999939  47.04000092
H    23.58525658  15.17362022  48.06103134
H    18.71999931  15.11999989  49.48999786
H    17.68000031  16.44000053  44.78000259
H    19.93999863  16.29999924  44.18000031
H    22.32999992  15.65000057  44.72000122
H    21.15999985  14.46000004  48.63999939
H    12.81000042  15.62000084  48.73000336
H    23.98999977  15.44999981  46.36000061
H    23.52999878  13.81999969  46.86999893
S    15.98000050  12.61999989  52.37999725
C    18.61999893  12.34000015  51.37000275
C    17.30999947  12.31999969  51.14999771
C    16.73999977  11.79999924  49.91000366
C    17.59000015  11.46000004  48.88000107
C    18.98999977  11.47999954  49.09999847
C    19.90999985  10.98999977  48.13999939
C    21.28000069  11.00000000  48.26000214
C    21.80999947  11.46000004  49.52999878
C    20.97999954  11.84999943  50.54000092
C    19.55999947  12.02000046  50.33000183
C    15.26000023  11.97000027  49.87999725
C    14.75999928  12.51999950  51.09000397
C    13.47000027  13.14000034  51.12999725
C    23.25000000  11.09000015  49.84000397
H    23.53867722  11.27306461  50.87501907
H    18.96999931  12.64000034  52.36000061
H    17.25000000  11.10000038  47.90999985
H    19.43000031  10.71000004  47.19999695
H    21.90000153  10.64000034  47.43999863
H    21.40000153  11.84000015  51.53999710
H    13.05999947  13.61999989  52.02000046
H    23.42000008  10.08999920  49.43000031
H    23.85000038  11.75000000  49.20000076
S    12.02000046  12.25999928  47.52999878
C     9.40999985  13.15999985  48.09999847
C    10.73999977  13.09999943  48.48999786
C    11.23000050  13.43999958  49.82999802
C    10.32999992  13.97999954  50.68999863
C     8.97000027  13.96000004  50.38000107
C     7.97999954  14.40000057  51.31999969
C     6.65000010  14.47999954  51.04000092
C     6.19999981  14.14000034  49.78000259
C     7.13999987  13.71999931  48.80000305
C     8.48999977  13.56999969  49.09000015
C    12.69999981  13.09000015  49.99000168
C    13.17000008  12.43999958  48.82999802
C    14.42999935  11.82000065  48.79000092
C     4.81999969  14.44000053  49.38999939
H     4.58752871  13.97505856  48.43193436
H     9.07999992  12.68000031  47.18000031
H    10.62000084  14.18000031  51.72000122
H     8.31999969  14.70999908  52.29999924
H     6.03999996  15.05000019  51.73999786
H     6.80999994  13.55000019  47.77000046
H    14.82999992  11.30000019  47.91999817
H     4.76999998  15.52000046  49.22999954
H     4.11000013  14.14000034  50.17000198
