96

S    12.02999973  16.29999924  44.41999817
C     9.50000000  16.60000038  45.18000031
C    10.67999935  16.13000107  45.45000076
C    11.05000019  15.70000076  46.75000000
C    10.11999989  15.71000004  47.75000000
C     8.82999992  16.20000076  47.47000122
C     7.72000027  16.04999924  48.36000061
C     6.46000004  16.39999962  48.06999969
C     6.14000034  17.02000046  46.81999969
C     7.11999989  17.13000107  45.90000153
C     8.47999954  16.72000122  46.11999893
C    12.46999931  15.55999947  46.81000137
C    13.15999985  15.93000031  45.65999985
C    14.48999977  16.03999901  45.54999924
C     4.67000008  17.28999901  46.39999771
H     4.39368677  16.59567451  45.60648346
H     9.34000015  16.98999977  44.18000031
H    10.36000061  15.06999969  48.60000229
H     7.88999987  15.62999916  49.34000015
H     5.69999981  16.26000023  48.83999634
H     6.93000031  17.38999939  44.86000061
H    14.93000031  16.31000137  44.59000015
H     4.01999998  17.11000061  47.27000427
H     4.51000023  18.34000015  46.11000061
S    15.69000053  14.70999908  49.09000015
C    18.35000038  14.50000000  48.27000046
C    17.12000084  14.96999931  48.02000046
C    16.76000023  15.50000000  46.77999878
C    17.78000069  15.62000084  45.76000214
C    19.13999939  15.26000023  46.05999756
C    20.17999840  15.32999992  45.14999771
C    21.42000008  14.89999962  45.52999878
C    21.70999908  14.40999985  46.81000137
C    20.69999886  14.22000027  47.69000244
C    19.34999847  14.65999985  47.35000229
C    15.29999924  15.67000008  46.63999939
C    14.61999989  15.14999962  47.77000046
C    13.22999954  15.18000031  47.95999908
C    23.12000084  14.09000015  47.18000031
H    23.42043114  14.60003376  48.09526443
H    18.53999901  13.99000072  49.20999908
H    17.53999901  15.85000038  44.72999954
H    20.00999832  15.59000015  44.10999680
H    22.23999977  14.88000011  44.82999802
H    20.72999954  13.83999920  48.70999908
H    12.64999962  14.80000019  48.80000305
H    23.78000069  14.30999947  46.33999634
H    23.18000031  12.98999977  47.18000031
S    16.00000000  12.64999962  52.09999847
C    18.59000015  11.82000065  51.46999741
C    17.28999901  11.85999966  51.11999893
C    16.79000092  11.35000038  49.84000397
C    17.71999931  11.13999939  48.80000305
C    19.05999947  11.23999977  49.15000153
C    20.02000046  10.98999977  48.18999863
C    21.35000038  11.00000000  48.52000427
C    21.83000183  11.00000000  49.84000397
C    20.88999939  11.30000019  50.84000015
C    19.52999878  11.49000072  50.47000122
C    15.36999893  11.52999973  49.81999969
C    14.73999977  12.07999992  50.96000290
C    13.38000107  12.36999989  51.04999924
C    23.31000137  10.76000023  50.22999573
H    23.59002876  11.24825478  51.16342545
H    18.85000038  12.11999989  52.48000336
H    17.43999863  10.80999947  47.80000305
H    19.76000023  10.82999992  47.14000320
H    22.07999992  10.86999989  47.72999573
H    21.07999992  11.47999954  51.88999939
H    12.97999954  12.86999893  51.91999817
H    23.35000038   9.65999985  50.22999573
H    23.88000107  11.13000011  49.36999893
S    11.92000008  11.44999981  47.48000336
C     9.30999947  12.22000027  48.27999878
C    10.65999985  12.05999947  48.54000092
C    11.19999981  12.41000080  49.81999969
C    10.46000004  13.01000023  50.79000092
C     9.02000046  13.15999985  50.61999893
C     8.18000031  13.73999977  51.52999878
C     6.88000011  14.01999950  51.18000031
C     6.28000021  13.26000023  50.14999771
C     7.04999971  12.67000008  49.20999908
C     8.43999958  12.64000034  49.36999893
C    12.61999989  12.20999908  49.93000031
C    13.17000008  11.64999962  48.76999664
C    14.51000023  11.30000019  48.70999908
C     4.88000011  13.60999966  49.75000000
H     4.61188316  13.29115772  48.74274826
H     8.89999962  12.05000019  47.28000259
H    10.82999992  13.26000023  51.77999878
H     8.65999985  14.14999962  52.42000198
H     6.37000036  14.77000046  51.77000046
H     6.69000053  12.30999947  48.25000000
H    14.92000008  10.88000107  47.80000305
H     4.75000000  14.70000076  49.84000397
H     4.23000002  13.23999977  50.56000137
