96

S    11.95000076  17.13000107  44.45999908
C     9.26000023  17.42000008  45.10000229
C    10.47999954  16.88999939  45.44000244
C    10.78999996  16.31000137  46.72000122
C     9.82999992  16.34000015  47.72999573
C     8.50000000  16.69999886  47.25999832
C     7.42000008  16.52000046  48.15999985
C     6.21000004  16.86000061  47.69000244
C     5.88000011  17.40999985  46.38999939
C     6.90999985  17.57999992  45.50000000
C     8.21000004  17.23999977  45.98999786
C    12.25999928  16.15999985  46.90000153
C    12.94999981  16.53000069  45.77000046
C    14.30999947  16.53000069  45.63000107
C     4.48000002  17.88999939  46.16000366
H     4.13127899  17.45061111  45.22542953
H     9.06999969  17.79000092  44.09000015
H     9.98000050  15.95000076  48.73000336
H     7.59999990  16.18999863  49.18000031
H     5.46000004  16.88999939  48.47000122
H     6.63000011  18.02000046  44.54999924
H    14.77000046  16.69999886  44.65999985
H     3.84999990  17.60000038  47.01000214
H     4.40000010  18.98999977  46.17000198
S    15.43000031  15.31000042  49.22000122
C    18.12000084  15.24000072  48.54000092
C    16.84000015  15.57999992  48.15999985
C    16.46000099  16.07999992  46.88000107
C    17.39999962  16.09000015  45.89000320
C    18.77000046  15.80000019  46.19999695
C    19.85000038  15.84000015  45.25000000
C    21.12999916  15.47000027  45.56999969
C    21.45999908  14.82999992  46.84000015
C    20.45999908  14.84000015  47.81999969
C    19.17000008  15.39999962  47.55000305
C    15.03999901  16.20000076  46.75000000
C    14.35999966  15.88999939  47.94000244
C    12.94000053  15.85000038  48.09999847
C    22.81999969  14.26000023  47.22999954
H    23.17167091  14.72420597  48.15137863
H    18.32999992  14.59000015  49.38999939
H    17.11000061  16.43000031  44.89999771
H    19.51000023  16.13999939  44.26000214
H    21.94999886  15.48999977  44.85000229
H    20.53999901  14.22999954  48.72000122
H    12.42000008  15.65000057  49.02999878
H    23.57000160  14.47999954  46.45999908
H    22.75000000  13.17999935  47.41000366
S    16.02000046  12.84999943  52.09999847
C    18.60000038  12.20000076  51.38999939
C    17.21999931  12.20000076  51.10000229
C    16.68000031  11.82999992  49.80999756
C    17.54999924  11.31000042  48.89999771
C    18.92000008  11.13000011  49.18000031
C    19.84000015  10.60999966  48.18999863
C    21.21000099  10.67000008  48.44999695
C    21.73999977  11.21000099  49.68999863
C    20.85000038  11.73999977  50.63000107
C    19.45999908  11.71000004  50.38999939
C    15.26999950  12.15999985  49.68999863
C    14.78000069  12.76000023  50.90000153
C    13.43000031  13.07000065  51.04999924
C    23.09999847  10.78999996  50.13000107
H    23.33145332  11.06910515  51.15792465
H    19.04000092  12.64999962  52.28000259
H    17.13999939  11.00000000  47.94000244
H    19.48999977  10.26999950  47.22000122
H    22.04000092  10.32999992  47.84000015
H    21.07000160  11.96000004  51.66999817
H    12.94999981  13.35000038  51.97999954
H    23.16999817   9.71000004  49.93999863
H    23.81999969  11.19999981  49.40999985
S    11.92000008  12.36999989  47.38999939
C     9.27999973  12.82999992  48.37999725
C    10.59999943  12.76999950  48.63999939
C    11.11999989  13.12000084  49.92000198
C    10.27999973  13.63999939  50.84999847
C     8.89000034  13.61999989  50.66999817
C     7.92000008  13.93000031  51.62000275
C     6.61999989  13.88000011  51.40999603
C     6.14000034  13.63999939  50.02999878
C     7.00000000  13.14000034  49.09000015
C     8.36000061  13.19000053  49.40000153
C    12.58999920  12.89000034  49.93999863
C    13.04999924  12.38999939  48.69999695
C    14.40999985  11.89000034  48.63999939
C     4.67999983  13.93000031  49.73999786
H     4.34624434  13.80665588  48.70970917
H     8.93999958  12.58999920  47.37999725
H    10.53999996  13.85000038  51.88999939
H     8.34999943  14.37999916  52.50999832
H     5.93999958  14.37000084  52.09000015
H     6.77999973  13.02000046  48.02999878
H    14.78000069  11.36999989  47.76000214
H     4.41000032  14.94999981  50.02999878
H     4.15000010  13.30000019  50.47000122
