96

S    12.35999966  16.32999992  44.20000076
C     9.80000019  16.87000084  44.94999695
C    10.98000050  16.29999924  45.27000046
C    11.31999969  15.80000019  46.56000137
C    10.26000023  15.85000038  47.52999878
C     8.97000027  16.29999924  47.19999695
C     7.86999989  16.17000008  48.06000137
C     6.60000038  16.68000031  47.70999908
C     6.42000008  17.42000008  46.44000244
C     7.44999981  17.43999863  45.48999786
C     8.73999977  16.86000061  45.90000153
C    12.74000072  15.69000053  46.65000153
C    13.43000031  15.90999985  45.47999954
C    14.86999989  15.86999989  45.34000015
C     5.03999996  18.00000000  46.14999771
H     4.64001846  17.46443176  45.28902054
H     9.77999973  17.46000099  44.02999878
H    10.31999969  15.25000000  48.43999863
H     8.00000000  15.62999916  48.99000168
H     5.84999990  16.73999977  48.50000000
H     7.48000050  17.87999916  44.50000000
H    15.38000011  15.97000027  44.38999939
H     4.42999983  18.02000046  47.04999924
H     5.18000031  19.04000092  45.83000183
S    15.98000050  15.07999992  49.00000000
C    18.56999969  14.56999969  48.25000000
C    17.32999992  14.96000099  47.85999680
C    17.02999878  15.44000053  46.56999969
C    18.09999847  15.67999935  45.70999908
C    19.38999939  15.36999893  46.09000397
C    20.52000046  15.48999977  45.25000000
C    21.77999878  15.01000023  45.58000183
C    21.93000031  14.28999996  46.77999878
C    20.84000015  14.18000031  47.62000275
C    19.56999969  14.68999958  47.34000397
C    15.62000084  15.60999966  46.44000244
C    14.89999962  15.43000031  47.67000198
C    13.50999928  15.46000004  47.81000137
C    23.31000137  13.78999901  47.21000290
H    23.71682358  14.43530464  47.98857498
H    18.81999969  14.18000031  49.23999786
H    17.87999916  16.21999931  44.79000092
H    20.32999992  15.95000076  44.27999878
H    22.52000046  15.34000015  44.85000229
H    20.90999985  13.45000076  48.41999817
H    13.07999992  15.44999981  48.81000137
H    23.97000122  13.85000038  46.33999634
H    23.26999855  12.72999954  47.49000168
S    15.86999989  13.02999973  52.11000061
C    18.51000023  12.34000015  51.49000168
C    17.18000031  12.43999958  51.07999802
C    16.70999908  11.98999977  49.79000092
C    17.61999893  11.35000038  48.96999741
C    19.01000023  11.30000019  49.31999969
C    19.90999985  10.77000046  48.44999695
C    21.12999916  10.55999947  48.88000107
C    21.68999863  11.05000019  50.12000275
C    20.84000015  11.59999943  51.00999832
C    19.48999977  11.76000023  50.61999893
C    15.26999950  12.13999939  49.69999695
C    14.70999908  12.76999950  50.80999756
C    13.35000038  13.14000034  50.89000320
C    23.13999939  10.81999969  50.40000153
H    23.48016739  11.25630379  51.33916092
H    18.78999901  12.64999962  52.49000168
H    17.32999992  10.90999985  48.01000214
H    19.43000031  10.34999943  47.56000137
H    21.77000046  10.00000000  48.20999908
H    21.01000023  11.85999966  52.04999924
H    12.93000031  13.50999928  51.83000183
H    23.36000061   9.75000000  50.50000000
H    23.78000069  11.31000042  49.65999985
S    11.84000015  11.72999954  47.42000198
C     9.22000027  12.39999962  48.15000153
C    10.50000000  12.31999969  48.46000290
C    11.00999928  12.72999954  49.81999969
C    10.07999992  13.02999973  50.84000015
C     8.67999935  13.12000084  50.47999954
C     7.76999998  13.81000042  51.31999969
C     6.48999977  13.97999954  50.81999969
C     6.01000023  13.40999985  49.65999985
C     6.86999989  12.90999985  48.75000000
C     8.26000023  12.84000015  49.08000183
C    12.50000000  12.77999973  49.79000092
C    13.07999992  12.15000057  48.62999725
C    14.42999935  11.80999947  48.64999771
C     4.59000015  13.63999939  49.22999954
H     4.41306877  13.61277962  48.15480042
H     8.93999958  12.02000046  47.16999817
H    10.46000004  13.48000050  51.75000000
H     8.23999977  14.37999916  52.11000061
H     5.75000000  14.63000107  51.25999832
H     6.65999985  12.75000000  47.69000244
H    14.81999969  11.31000042  47.77000046
H     4.25000000  14.61999989  49.59000015
H     3.86999989  12.94000053  49.65999985
