96

S    12.20999908  16.68000031  44.00000000
C     9.51000023  17.15999985  44.84000397
C    10.78999996  16.61000061  45.02999878
C    11.06999969  16.21999931  46.33999634
C    10.06999969  16.13000107  47.36999893
C     8.80999947  16.57999992  47.11999893
C     7.76999998  16.47999954  48.06999969
C     6.54999971  16.95000076  47.77999878
C     6.28999996  17.61999893  46.56000137
C     7.23000002  17.73999977  45.61000061
C     8.50000000  17.17000008  45.89000320
C    12.50000000  16.03000069  46.50000000
C    13.23999977  16.29999924  45.31000137
C    14.56999969  16.26000023  45.20999908
C     4.94999981  18.04999924  46.16000366
H     4.61261606  17.51458549  45.27253342
H     9.27999973  17.63000107  43.88999939
H    10.34999943  15.84000015  48.37999725
H     8.13000011  16.03000069  48.99000168
H     5.73000002  16.80999947  48.47999954
H     7.07999992  18.20999908  44.64000320
H    15.01000023  16.15999985  44.22000122
H     4.21999979  17.94000053  46.97000122
H     4.88999987  19.10000038  45.86000061
S    15.67000008  15.36999893  48.88000107
C    18.22000122  14.63000107  48.06999969
C    17.06999969  15.25000000  47.77999878
C    16.69000053  15.59999943  46.46999741
C    17.68000031  15.54999924  45.47000122
C    18.97999954  15.26000023  45.79999924
C    20.10999870  15.55999947  44.97000122
C    21.40000153  15.29000092  45.31000137
C    21.71999931  14.67000008  46.62000275
C    20.65000153  14.52999973  47.48000336
C    19.29999924  14.73000050  47.11999893
C    15.31999969  15.97000027  46.36000061
C    14.57999992  15.80000019  47.61000061
C    13.22000027  15.73999977  47.70999908
C    23.13999939  14.34999943  47.04000092
H    23.57735252  15.10853195  47.68919373
H    18.40999985  14.14000034  49.02000046
H    17.45000076  15.65999985  44.40999985
H    19.80999947  15.88999939  43.97999573
H    22.21999931  15.38000011  44.59999847
H    20.65999985  14.04999924  48.46000290
H    12.72999954  15.34999943  48.60000229
H    23.81000137  14.13000011  46.20999908
H    23.09999847  13.38999939  47.57999802
S    11.65999985  16.79999924  50.66999817
C     9.03999996  17.35999870  51.62000275
C    10.26999950  16.79999924  51.79999924
C    10.67000008  16.36000061  53.13000107
C     9.77000046  16.39000130  54.15000153
C     8.45000076  16.87000084  53.99000168
C     7.53999996  16.90999985  55.07999802
C     6.28999996  17.47999954  54.86000061
C     5.98000002  18.04999924  53.56999969
C     6.94000006  18.15999985  52.60000229
C     8.13000011  17.47999954  52.71999741
C    12.11999989  16.17000008  53.27999878
C    12.74000072  16.31999969  52.02000046
C    14.14999962  16.28000069  52.01000214
C     4.59000015  18.45999908  53.20999908
H     4.21273088  17.96396065  52.31573105
H     8.76999950  17.84000015  50.68000031
H    10.08999920  16.14999962  55.17000198
H     7.68000031  16.47999954  56.05999756
H     5.55999994  17.42000008  55.65999985
H     6.65000010  18.57999992  51.63999939
H    14.70000076  16.46000099  51.09000397
H     3.88999987  18.15999985  54.01000214
H     4.50000000  19.52999878  53.02999878
S    15.34000015  15.64000034  55.68999863
C    18.01000023  15.29000092  54.93000031
C    16.77999878  15.72000027  54.61999893
C    16.34000015  15.92000008  53.29999924
C    17.22999954  16.09000015  52.27000427
C    18.59000015  15.67000008  52.56999969
C    19.50000000  15.62000084  51.51000214
C    20.84000015  15.18000031  51.68000031
C    21.25999832  14.89999962  53.04000092
C    20.23999977  14.70000076  54.02999878
C    18.96999931  15.19999981  53.82999802
C    14.89999962  16.07999992  53.15999985
C    14.22999954  15.95999908  54.38000107
C    12.84999943  15.92000008  54.45999908
C    22.75000000  14.73000050  53.34000015
H    22.94544220  15.17155361  54.31720734
H    18.18000031  14.80999947  55.89000320
H    16.88999939  16.36999893  51.26999664
H    19.27000046  15.98000050  50.51000214
H    21.50000000  15.15999985  50.80999756
H    20.43000031  14.29999924  55.01999664
H    12.36999989  15.86999989  55.44000244
H    23.48999977  15.14000034  52.63000107
H    22.95999908  13.64999962  53.27999878
