96

S    12.05999947  16.86000061  44.13000107
C     9.47000027  17.19000053  45.00999832
C    10.72000027  16.77999878  45.27999878
C    11.07999992  16.27000046  46.56999969
C    10.14000034  16.10000038  47.48000336
C     8.75000000  16.39999962  47.21000290
C     7.64999962  16.15999985  48.11000061
C     6.42000008  16.56999969  47.76000214
C     6.07999992  17.13999939  46.55000305
C     7.07999992  17.31999969  45.63999939
C     8.45000076  16.93000031  45.91999817
C    12.48999977  16.03999901  46.66999817
C    13.12000084  16.35000038  45.47000122
C    14.51000023  16.31000137  45.40000153
C     4.57999992  17.43000031  46.25000000
H     4.28964567  17.28836250  45.20897675
H     9.18000031  17.75000000  44.13000107
H    10.31999969  15.81999969  48.50999832
H     7.77999973  15.59000015  49.02999878
H     5.65999985  16.36000061  48.50999832
H     6.90999985  17.67000008  44.61999893
H    14.94999981  16.40999985  44.41999817
H     3.98000002  16.84000015  46.95999908
H     4.33999968  18.44000053  46.59999847
S    15.71000004  15.29999924  49.06000137
C    18.29000092  14.85000038  48.16999817
C    17.09000015  15.43000031  47.90999985
C    16.69000053  15.95999908  46.60999680
C    17.64999962  15.95999908  45.65000153
C    18.93000031  15.47000027  45.96000290
C    20.03999901  15.47000027  45.00000000
C    21.31999969  15.05000019  45.24000168
C    21.54000092  14.46000004  46.55000305
C    20.52000046  14.32999992  47.43999863
C    19.26000023  14.88999939  47.18000031
C    15.25000000  16.03000069  46.50000000
C    14.60000038  15.67000008  47.75000000
C    13.23999977  15.78999996  47.81000137
C    22.98000145  14.02999973  47.00000000
H    23.31459236  14.50907516  47.92012787
H    18.50000000  14.30999947  49.09999847
H    17.39999962  16.43000031  44.69999695
H    19.76000023  15.85999966  44.02000046
H    22.11999893  15.19999981  44.52000046
H    20.58000183  13.93000031  48.43999863
H    12.75000000  15.44999981  48.72000122
H    23.64999962  14.22999954  46.14999771
H    23.02000046  12.94000053  47.06999969
S    11.46999931  16.98999977  50.84999847
C     8.98999977  17.71000099  51.90000153
C    10.21999931  17.09000015  52.02999878
C    10.54999924  16.44000053  53.20999908
C     9.59999943  16.36000061  54.23999786
C     8.27999973  16.90999985  54.13000107
C     7.14999962  16.69000053  55.01999664
C     5.92000008  17.19000053  54.69999695
C     5.69000006  17.95999908  53.54999924
C     6.72999954  18.05999947  52.63000107
C     8.01999950  17.64999962  52.91999817
C    11.97000027  16.04999924  53.26000214
C    12.61000061  16.28999901  52.04000092
C    14.00000000  16.18000031  51.95000076
C     4.25000000  18.04000092  53.00000000
H     4.11030531  17.53709793  52.04309082
H     8.71000004  18.18000031  50.96000290
H     9.72999954  15.70000076  55.08999634
H     7.32999992  16.15999985  55.94999695
H     5.03999996  16.97000122  55.31000137
H     6.58999968  18.22999954  51.56000137
H    14.57999992  16.47999954  51.09000397
H     3.50000000  17.63000107  53.68999863
H     4.00000000  19.10000038  52.97000122
S    15.06000042  15.14000034  55.58000183
C    17.73999977  15.11999989  55.10000229
C    16.51000023  15.47000027  54.71000290
C    16.10000038  15.90000057  53.37999725
C    17.10000038  16.18999863  52.50000000
C    18.40999985  15.78999996  52.83000183
C    19.43000031  15.85999966  51.81999969
C    20.72000122  15.40999985  52.01000214
C    21.02999878  14.73999977  53.23999786
C    20.07999802  14.68999958  54.29000092
C    18.73999977  15.19999981  54.13000107
C    14.70999908  15.78999996  53.06999969
C    14.02999973  15.44000053  54.25000000
C    12.69999981  15.59000015  54.31999969
C    22.44999886  14.34000015  53.47999954
H    22.78236580  14.76629639  54.42652130
H    17.76000023  14.75000000  56.11999893
H    16.94000053  16.48999977  51.46999741
H    19.11000061  16.35000038  50.90999985
H    21.45999908  15.53999996  51.22000122
H    20.38999939  14.34000015  55.27000046
H    12.22000027  15.47999954  55.28999710
H    23.12000084  14.75999928  52.70999908
H    22.56000137  13.25000000  53.48999786
