96

S    12.46000099  17.12000084  44.33000183
C     9.76000023  17.59000015  45.00999832
C    11.00000000  17.13999939  45.38999939
C    11.31999969  16.53000069  46.66999817
C    10.26999950  16.39000130  47.49000168
C     8.97999954  16.82999992  47.21000290
C     8.01000023  16.87000084  48.25000000
C     6.70000029  17.27000046  47.97999954
C     6.38000011  17.76000023  46.66999817
C     7.30999994  17.81999969  45.63999939
C     8.67999935  17.45000076  45.91999817
C    12.79999924  16.34000015  46.76000214
C    13.53000069  16.55999947  45.58000183
C    14.92000008  16.59000015  45.51000214
C     4.99000025  18.15999985  46.18000031
H     4.52043819  17.51522827  45.43711472
H     9.52999973  17.89999962  44.00000000
H    10.43000031  15.88000107  48.43999863
H     8.34000015  16.55999947  49.22999954
H     5.93999958  17.23999977  48.75999832
H     7.03999996  18.27999878  44.68999863
H    15.46000004  16.81999969  44.59999847
H     4.32000017  18.15000153  47.04000092
H     5.01999950  19.19999886  45.81999969
S    15.90000057  15.34999943  49.06000137
C    18.60000038  15.11999989  48.41999817
C    17.35999870  15.50000000  48.09000015
C    17.04000092  16.09000015  46.83000183
C    18.00000000  16.20000076  45.87999725
C    19.34000015  15.75000000  46.12999725
C    20.43999863  15.81999969  45.12000275
C    21.68999863  15.36000061  45.47000122
C    22.01000023  14.88000011  46.79000092
C    20.96999931  14.77000046  47.71999741
C    19.67000008  15.26000023  47.43000031
C    15.64000034  16.27000046  46.63000107
C    14.88999939  15.93999958  47.81000137
C    13.52000046  15.98999977  47.88000107
C    23.35000038  14.52000046  47.21000290
H    23.62389755  15.03175545  48.13260269
H    18.71000099  14.78000069  49.43999863
H    17.64999962  16.61000061  44.93999863
H    20.35000038  16.26000023  44.13999939
H    22.46999931  15.39999962  44.71000290
H    21.11999893  14.25000000  48.66000366
H    13.04999924  15.65000057  48.80000305
H    24.05999947  14.81999969  46.43000031
H    23.32999992  13.43000031  47.32999802
S    16.46000099  12.63000011  52.00000000
C    19.06999969  12.18000031  51.07999802
C    17.72999954  12.18999958  50.83000183
C    17.17000008  11.84999943  49.58000183
C    18.09000015  11.64999962  48.52000427
C    19.45999908  11.52999973  48.81999969
C    20.40999985  11.30000019  47.80000305
C    21.77000046  11.26999950  48.06000137
C    22.27999878  11.40999985  49.36000061
C    21.38999939  11.79999924  50.34999847
C    19.98999977  11.84000015  50.07999802
C    15.77999973  11.90000057  49.48999786
C    15.25000000  12.35000038  50.73999786
C    13.89999962  12.69999981  50.80999756
C    23.71000099  10.88999939  49.75999832
H    23.91640663  11.14622879  50.79915237
H    19.36000061  12.71999931  51.97000122
H    17.69000053  11.44000053  47.52999878
H    20.05000114  11.00999928  46.81000137
H    22.42000198  10.81999969  47.31999969
H    21.67000008  12.02999973  51.37000275
H    13.55999947  13.32999992  51.63000107
H    23.68000031   9.81000042  49.56999969
H    24.47000122  11.36000061  49.13000107
S    12.35999966  12.07999992  47.18999863
C     9.81000042  12.57999992  48.11000061
C    11.10999966  12.60000038  48.37999725
C    11.67000008  12.84000015  49.62999725
C    10.77999973  13.20000076  50.61000061
C     9.38000011  13.40999985  50.38999939
C     8.47000027  13.80000019  51.39999771
C     7.13999987  13.96999931  51.04000092
C     6.61000013  13.64999962  49.75999832
C     7.50000000  13.17000008  48.86000061
C     8.88000011  13.02000046  49.09000015
C    13.09000015  12.61999989  49.71000290
C    13.59000015  12.10999966  48.50000000
C    14.88999939  11.69000053  48.41999817
C     5.13999987  13.96999931  49.52999878
H     4.86741161  13.66871738  48.51855087
H     9.47000027  12.28999996  47.11999893
H    11.21000099  13.48000050  51.56999969
H     8.85000038  14.11999893  52.36999893
H     6.44999981  14.48999977  51.69000244
H     7.20000029  12.93000031  47.84999847
H    15.27999973  11.35000038  47.47000122
H     5.09000015  15.06000042  49.59999847
H     4.35999966  13.50999928  50.14999771
