96

S    12.36999989  16.73999977  44.13000107
C     9.72000027  17.20000076  44.82999802
C    10.98999977  16.72000122  45.13000107
C    11.26000023  16.27000046  46.46999741
C    10.29999924  16.18000031  47.39999771
C     8.97999954  16.51000023  47.02000046
C     7.83999968  16.31000137  47.84999847
C     6.57999992  16.79000092  47.56000137
C     6.38999987  17.51000023  46.39999771
C     7.37999964  17.75000000  45.52000046
C     8.67000008  17.25000000  45.84999847
C    12.64999962  16.07999992  46.63000107
C    13.42000008  16.39999962  45.47999954
C    14.80999947  16.39000130  45.47000122
C     4.94999981  17.98999977  46.11000061
H     4.60411882  17.45278168  45.22690201
H     9.39999962  17.60000038  43.87000275
H    10.52000046  15.78999996  48.39000320
H     8.05999947  15.76000023  48.75999832
H     5.73000002  16.60000038  48.20999908
H     7.25000000  18.22000122  44.54999924
H    15.38000011  16.39999962  44.54999924
H     4.32999992  17.95999908  47.02000046
H     5.01999950  19.06999969  45.93000031
S    15.71000004  15.47000027  49.19000244
C    18.42000008  15.11000061  48.63999939
C    17.19000053  15.52999973  48.20999908
C    16.88999939  15.90000057  46.86999893
C    17.93000031  15.97000027  45.89000320
C    19.23999977  15.51000023  46.27999878
C    20.32999992  15.60999966  45.28999710
C    21.55999947  15.14999962  45.61999893
C    21.80000114  14.59000015  46.90000153
C    20.81000137  14.52000046  47.84999847
C    19.47000122  15.01000023  47.62000275
C    15.47999954  16.18000031  46.70000076
C    14.67000008  15.84000015  47.78999710
C    13.27000046  15.71000004  47.81999969
C    23.13999939  14.11000061  47.29999924
H    23.59222412  14.76007366  48.04899597
H    18.65999985  14.80000019  49.65000153
H    17.71999931  16.25000000  44.86000061
H    20.06999969  16.03999901  44.33000183
H    22.34999847  15.27999973  44.88999939
H    21.11000061  14.15999985  48.82999802
H    12.68000031  15.59000015  48.73000336
H    23.80000114  14.07999992  46.42000198
H    23.09000015  13.10999966  47.72999573
S    12.02999973  16.93000031  51.02000427
C     9.34000015  17.27000046  51.51000214
C    10.60999966  16.98999977  52.02999878
C    10.90000057  16.67000008  53.39000320
C     9.88000011  16.72000122  54.31000137
C     8.56000042  17.13000107  53.89999771
C     7.55000019  17.30999947  54.79000092
C     6.32999992  17.70000076  54.40999985
C     5.91000032  17.65999985  53.08000183
C     6.86999989  17.40999985  52.14000320
C     8.27999973  17.22999954  52.47000122
C    12.31999969  16.34000015  53.54999924
C    13.04999924  16.50000000  52.41000366
C    14.44000053  16.42000008  52.34000397
C     4.48999977  17.95999908  52.71999741
H     4.20244217  17.72153664  51.69601059
H     9.17000008  17.17000008  50.44000244
H    10.01999950  16.39999962  55.33000183
H     7.73000002  17.15999985  55.84999847
H     5.61999989  17.90999985  55.20000076
H     6.63000011  17.59000015  51.10000229
H    14.88999939  16.22999954  51.37000275
H     3.86999989  17.47999954  53.48999786
H     4.40000010  19.04000092  52.84000015
S    15.39999962  15.50000000  56.06999969
C    18.09000015  15.01000023  55.34000015
C    16.87000084  15.51000023  55.01999664
C    16.61000061  16.00000000  53.69999695
C    17.56999969  16.10999870  52.77000046
C    18.90999985  15.59999943  53.06999969
C    19.93999863  15.72000027  52.12999725
C    21.15999985  15.22999954  52.48000336
C    21.40999985  14.55999947  53.68000031
C    20.42000008  14.45000076  54.61999893
C    19.10000038  15.00000000  54.38000107
C    15.14999962  16.11999893  53.54000092
C    14.42000008  15.93000031  54.65000153
C    13.03999996  16.10000038  54.75999832
C    22.80999947  14.06999969  53.96999741
H    23.24160004  14.65522099  54.78199387
H    18.39999962  14.52999973  56.26999664
H    17.34000015  16.39000130  51.73999786
H    19.73999977  16.17000008  51.16000366
H    21.97000122  15.39000034  51.77000046
H    20.62000084  13.86999989  55.52000046
H    12.51000023  16.00000000  55.70000076
H    23.54000092  14.14999962  53.15000153
H    22.67999840  13.01000023  54.22999954
