96

S    11.92000008  16.87000084  44.23999786
C     9.32999992  17.48999977  45.06999969
C    10.53999996  17.00000000  45.34000015
C    10.78999996  16.52000046  46.65000153
C     9.77999973  16.42000008  47.67000198
C     8.51000023  16.87000084  47.27000427
C     7.44999981  16.87999916  48.15000153
C     6.15999985  17.20000076  47.80000305
C     5.91000032  17.65999985  46.55000305
C     6.93000031  17.82999992  45.65000153
C     8.23999977  17.35999870  45.97999954
C    12.30000019  16.36000061  46.76000214
C    12.97999954  16.45000076  45.52000046
C    14.37999916  16.38000107  45.44000244
C     4.53000021  18.15999985  46.20999908
H     4.26298428  17.66020203  45.27886963
H     8.94999981  17.88999939  44.13000107
H    10.05000019  15.72000027  48.44999695
H     7.67000008  16.80999947  49.20999908
H     5.36999989  17.10000038  48.54000092
H     6.86999989  18.34000015  44.69999695
H    14.86999989  16.45000076  44.47000122
H     3.86000013  17.92000008  47.04999924
H     4.55000019  19.25000000  46.10000229
S    15.46000004  15.34999943  49.15000153
C    18.11000061  14.68999958  48.33000183
C    16.87999916  15.21999931  48.02999878
C    16.53000069  15.77999973  46.75000000
C    17.54999924  15.85999966  45.84000015
C    18.86999893  15.46000004  46.14999771
C    19.93999863  15.72999954  45.19000244
C    21.22999954  15.26999950  45.52999878
C    21.48999977  14.55000019  46.66999817
C    20.45999908  14.34000015  47.62000275
C    19.15999985  14.81999969  47.41000366
C    15.11000061  16.10000038  46.63999939
C    14.40000057  15.86999989  47.88000107
C    13.03999996  16.20000076  47.97999954
C    22.96999931  14.19999981  47.02000046
H    23.28402710  14.67817879  47.94781113
H    18.30999947  14.27999973  49.31999969
H    17.36999893  16.21000099  44.82999802
H    19.73999977  16.34000015  44.31000137
H    22.01999855  15.52999973  44.82999802
H    20.69999886  13.78000069  48.52000427
H    12.51000023  16.02000046  48.90999603
H    23.62999916  14.52999973  46.20999908
H    22.98999977  13.10999966  47.16999817
S    12.02000046  17.05999947  51.18000031
C     9.34000015  17.28000069  51.68000031
C    10.60999966  17.11000061  52.15999985
C    10.82999992  16.62999916  53.48999786
C     9.81000042  16.51000023  54.36000061
C     8.48999977  16.95000076  53.95999908
C     7.39000034  17.06999969  54.86999893
C     6.17000008  17.46999931  54.45999908
C     5.97000027  18.02000046  53.18000031
C     6.97000027  17.80999947  52.21000290
C     8.25000000  17.30999947  52.61000061
C    12.22000027  16.46999931  53.68999863
C    13.04999924  16.64999962  52.54000092
C    14.40999985  16.61000061  52.52999878
C     4.59999990  18.47999954  52.77999878
H     4.36454487  17.94676399  51.85895538
H     9.21000004  17.54999924  50.63000107
H     9.98999977  16.40999985  55.43000031
H     7.44999981  16.84000015  55.93000031
H     5.38999987  17.56000137  55.20000076
H     7.04999971  18.15000153  51.18000031
H    15.01000023  16.72999954  51.63000107
H     3.94000006  18.12999916  53.56999969
H     4.51999998  19.56999969  52.68000031
S    15.32999992  15.57000065  56.16000366
C    17.97000122  15.13000011  55.47999954
C    16.76000023  15.57000065  55.13999939
C    16.45000076  16.03000069  53.82999802
C    17.39999962  16.06999969  52.87000275
C    18.75000000  15.69000053  53.20999908
C    19.84000015  15.78999996  52.31999969
C    21.14999962  15.48999977  52.64999771
C    21.38999939  14.84000015  53.93000031
C    20.38000107  14.65000057  54.77000427
C    19.00000000  15.08999920  54.52999878
C    15.05000019  16.23999977  53.70999908
C    14.29999924  16.03000069  54.87999725
C    12.89000034  16.18000031  54.89999771
C    22.73999977  14.35999966  54.33000183
H    23.05908585  14.88471985  55.23052979
H    18.12999916  14.59000015  56.42000198
H    17.27000046  16.39999962  51.84000015
H    19.60000038  16.13999939  51.31999969
H    21.93000031  15.64000034  51.91999817
H    20.53999901  14.18000031  55.72999954
H    12.23000050  15.90000057  55.70999908
H    23.46999931  14.63999939  53.55999756
H    22.67999840  13.28999996  54.56999969
