96

S    12.10999966  17.00000000  44.38000107
C     9.39000034  17.45000076  45.05000305
C    10.62000084  17.02999878  45.40999985
C    10.95999908  16.61000061  46.72999954
C     9.98000050  16.43000031  47.63999939
C     8.61999989  16.81999969  47.25999832
C     7.51999950  16.80999947  48.18000031
C     6.32000017  17.35999870  47.81999969
C     6.01999998  17.86000061  46.51000214
C     7.03999996  17.73999977  45.59999847
C     8.32999992  17.32999992  45.97000122
C    12.36999989  16.36999893  46.93000031
C    13.12999916  16.61999893  45.76000214
C    14.47999954  16.46999931  45.58000183
C     4.63999987  18.19000053  46.07999802
H     4.26636553  17.50500488  45.31889343
H     9.15999985  17.94999886  44.10999680
H    10.19999981  16.13999939  48.66000366
H     7.69000006  16.54000092  49.22000122
H     5.49000025  17.28000069  48.50999832
H     6.89000034  18.02000046  44.55999756
H    14.88999939  16.46999931  44.58000183
H     3.98999977  18.20000076  46.95999908
H     4.69000006  19.20999908  45.68000031
S    15.59000015  15.44000053  49.18000031
C    18.19000053  15.06999969  48.53000259
C    16.90999985  15.39000034  48.09000015
C    16.61000061  15.73999977  46.77999878
C    17.68000031  15.90999985  45.93000031
C    18.97999954  15.44000053  46.27999878
C    20.00000000  15.39999962  45.34999847
C    21.25000000  14.93000031  45.72999954
C    21.56999969  14.55000019  47.09000015
C    20.59999847  14.63000107  48.01000214
C    19.25000000  15.05000019  47.63000107
C    15.21000004  16.07999992  46.68000031
C    14.55000019  15.97000027  47.88999939
C    13.15999985  16.10000038  48.02999878
C    22.98999977  14.42999935  47.50000000
H    23.15879250  14.86604595  48.48461914
H    18.30000114  14.68000031  49.54000092
H    17.50000000  16.35000038  44.94999695
H    19.73999977  15.75000000  44.36000061
H    22.01000023  15.03000069  44.95999908
H    20.73999786  14.34000015  49.05000305
H    12.72999954  15.77999973  48.97999573
H    23.48999977  14.98999977  46.70000076
H    23.38999939  13.40999985  47.43999863
S    12.05000019  16.79999924  51.04000092
C     9.47000027  17.42000008  51.62000275
C    10.59999943  16.87000084  52.08000183
C    10.80999947  16.54999924  53.43000031
C     9.72000027  16.61000061  54.27999878
C     8.45000076  17.09000015  53.82999802
C     7.28999996  17.28999901  54.59000015
C     6.14000034  17.71999931  54.12000275
C     6.05999994  18.07999992  52.81000137
C     7.14999962  18.01000023  52.02999878
C     8.38000011  17.56000137  52.50000000
C    12.23999977  16.36999893  53.66000366
C    13.02999973  16.57999992  52.47000122
C    14.47000027  16.55999947  52.42000198
C     4.75000000  18.53000069  52.18999863
H     3.96457291  17.78861618  52.04319000
H     9.30000019  17.68000031  50.58000183
H     9.81999969  16.21999931  55.28999710
H     7.30000019  16.86000061  55.59000015
H     5.15999985  17.54999924  54.54000092
H     7.00000000  18.17000008  50.96000290
H    14.98999977  16.69999886  51.47999573
H     4.23999977  19.31999969  52.75000000
H     5.00999975  19.02000046  51.24000168
S    15.39000034  15.55999947  56.18000031
C    18.12000084  15.15999985  55.38000107
C    16.79999924  15.57000065  55.06000137
C    16.52000046  16.03000069  53.72000122
C    17.47999954  15.84000015  52.75000000
C    18.79999924  15.54999924  53.06000137
C    19.78999901  15.57999992  52.08000183
C    21.02999878  15.19999981  52.42000198
C    21.38000107  14.81999969  53.74000168
C    20.43999863  14.73999977  54.71000290
C    19.14999962  15.19000053  54.40000153
C    15.10000038  16.28999901  53.62999725
C    14.35999966  16.10999870  54.82999802
C    12.94000053  16.22999954  54.86999893
C    22.81999969  14.45000076  54.10999680
H    23.04133606  14.96407318  55.04532623
H    18.36000061  14.68000031  56.32999802
H    17.13000107  16.09000015  51.75000000
H    19.59000015  16.04999924  51.11999893
H    21.77999878  15.03000069  51.65000153
H    20.73999786  14.42999935  55.70999908
H    12.46999931  16.18999863  55.84999847
H    23.55999947  14.65999985  53.33000183
H    22.86999893  13.36999989  54.31000137
