96

S    12.55000019  15.92000008  43.92000198
C     9.88000011  16.36999893  44.65999985
C    11.16000080  16.00000000  45.00000000
C    11.56000042  15.76000023  46.32999802
C    10.64000034  16.00000000  47.36999893
C     9.28999996  16.36999893  47.08000183
C     8.32999992  16.54000092  48.06000137
C     7.00000000  16.86000061  47.70999908
C     6.65000010  17.17000008  46.32999802
C     7.63000011  17.12000084  45.41999817
C     8.97000027  16.60000038  45.70000076
C    12.97000027  15.65999985  46.52999878
C    13.63999939  15.80000019  45.30000305
C    14.96000099  15.95999908  45.19000244
C     5.19000006  17.54999924  45.93999863
H     4.88504410  16.96136475  45.07477570
H     9.59999943  16.87999916  43.74000168
H    10.90000057  15.67000008  48.37999725
H     8.59000015  16.27000046  49.06999969
H     6.19999981  16.76000023  48.43000031
H     7.40999985  17.38999939  44.38999939
H    15.48999977  16.07999992  44.25000000
H     4.56999969  17.28000069  46.79999924
H     5.05000019  18.60999870  45.68999863
S    16.04999924  15.65999985  48.97999573
C    18.68000031  15.07999992  48.29000092
C    17.43000031  15.53999996  47.94000244
C    17.13999939  15.78999996  46.56999969
C    18.09999847  15.52999973  45.61999893
C    19.47999954  15.21000004  46.00000000
C    20.52000046  14.94999981  45.05000305
C    21.75000000  14.42999935  45.45999908
C    21.98999786  14.32000065  46.86000061
C    21.07000160  14.63000107  47.76000214
C    19.73999977  15.00000000  47.36000061
C    15.67999935  16.02000046  46.39999771
C    15.03999901  15.85999966  47.62000275
C    13.64999962  15.82999992  47.75000000
C    23.36999893  13.93000031  47.38999939
H    23.55536652  14.55026817  48.26692963
H    18.78000069  14.70000076  49.29999924
H    17.86000061  15.54999924  44.55999756
H    20.34000015  15.10000038  43.97999573
H    22.55000114  14.18000031  44.78000259
H    21.28000069  14.34999943  48.79000092
H    13.10999966  15.95000076  48.68000031
H    24.06999969  14.11000061  46.56000137
H    23.34000015  12.84000015  47.54000092
S    15.75000000  12.92000008  52.21000290
C    18.42000008  12.28999996  51.56999969
C    17.11000061  12.34000015  51.20999908
C    16.68000031  11.87999916  49.91000366
C    17.61000061  11.47999954  48.99000168
C    18.96999931  11.39000034  49.27999878
C    20.00999832  11.05999947  48.31999969
C    21.31000137  11.10999966  48.76999664
C    21.64999962  11.39999962  50.10000229
C    20.71000099  11.94000053  50.97000122
C    19.37000084  11.90999985  50.52999878
C    15.31000042  12.11999989  49.66999817
C    14.60999966  12.64999962  50.84000015
C    13.23999977  12.97000027  50.81999969
C    23.01000214  10.88999939  50.61999893
H    23.46371651  11.27169609  51.53462982
H    18.68000031  12.56000042  52.58999634
H    17.25000000  11.36000061  47.97000122
H    19.73999977  10.77999973  47.30999756
H    22.06000137  10.70000076  48.09999847
H    20.92000008  12.07999992  52.02999878
H    12.79000092  13.38999939  51.70999908
H    22.88999939   9.80000019  50.54999924
H    23.69999886  11.19999981  49.82999802
S    12.10999966  12.22000027  47.16999817
C     9.39000034  12.63000011  47.81999969
C    10.71000004  12.64999962  48.15999985
C    11.10999966  13.07999992  49.47000122
C    10.17000008  13.55000019  50.33000183
C     8.80000019  13.60999966  50.00000000
C     7.83999968  13.96000004  50.98999786
C     6.52999973  14.01000023  50.66999817
C     6.11000013  13.76999950  49.27999878
C     6.98000002  13.27000046  48.36999893
C     8.38000011  13.12000084  48.68999863
C    12.53000069  12.79000092  49.66999817
C    13.17000008  12.28999996  48.56999969
C    14.52999973  11.89000034  48.50999832
C     4.73000002  14.07999992  48.86000061
H     4.42654848  13.71874809  47.87739563
H     9.06000042  12.13999939  46.90999985
H    10.47999954  13.63999939  51.37000275
H     8.31999969  14.37000084  51.88000107
H     5.86000013  14.45000076  51.38999939
H     6.81999969  13.17999935  47.29999924
H    14.98999977  11.50000000  47.60000229
H     4.50000000  15.14999962  48.92000198
H     4.09000015  13.61999989  49.61999893
