96

S    12.07999992  16.64999962  44.34000015
C     9.53999996  17.18000031  45.07999802
C    10.70000076  16.60000038  45.44000244
C    11.06999969  16.14999962  46.75000000
C    10.11000061  16.31999969  47.70000076
C     8.86999989  16.90000153  47.45999908
C     7.82000017  16.75000000  48.36999893
C     6.51000023  17.00000000  47.97000122
C     6.21999979  17.54999924  46.69000244
C     7.18999958  17.67000008  45.77000046
C     8.53999996  17.31999969  46.05999756
C    12.56999969  15.97000027  46.84000015
C    13.21000004  16.21000099  45.63000107
C    14.60999966  16.35000038  45.52999878
C     4.74000025  17.94999886  46.39999771
H     4.36878872  17.59334564  45.43921661
H     9.34000015  17.60000038  44.09999847
H    10.27999973  15.82999992  48.64999771
H     8.02999973  16.13000107  49.23999786
H     5.73999977  17.07999992  48.73000336
H     7.00999975  17.94999886  44.73999786
H    15.06999969  16.79000092  44.65000153
H     4.07999992  17.51000023  47.15999985
H     4.61000013  19.03000069  46.51000214
S    15.85999966  15.67000008  49.23999786
C    18.51000023  15.40999985  48.43999863
C    17.20999908  15.84000015  48.13999939
C    16.87000084  16.06999969  46.75000000
C    17.80999947  16.18000031  45.77999878
C    19.13999939  15.75000000  46.09000397
C    20.20999908  15.80000019  45.19000244
C    21.47000122  15.39999962  45.48999786
C    21.73000145  14.85999966  46.77999878
C    20.72999954  14.75000000  47.69000244
C    19.40999985  15.26999950  47.39999771
C    15.39000034  16.18000031  46.63999939
C    14.73000050  15.90000057  47.88999939
C    13.34000015  15.76000023  48.01000214
C    23.09999847  14.35999966  47.11000061
H    23.42493057  14.84001064  48.03309631
H    18.68000031  14.85000038  49.36000061
H    17.53999901  16.61000061  44.82999802
H    20.10000038  15.93999958  44.10999680
H    22.18000031  15.29000092  44.66999817
H    20.89999962  14.29999924  48.67000198
H    12.81000042  15.72000027  48.95999908
H    23.87000084  14.63000107  46.38000107
H    23.02999878  13.26000023  47.15000153
S    15.65999985  13.30999947  52.19999695
C    18.30000114  12.61999989  51.59000015
C    16.97000122  12.64999962  51.19999695
C    16.43000031  12.18999958  50.00000000
C    17.35999870  11.63000011  49.10999680
C    18.71999931  11.50000000  49.51000214
C    19.68000031  11.06999969  48.55999756
C    21.01000023  11.05000019  48.80000305
C    21.47999954  11.28000069  50.13999939
C    20.62000084  11.82999992  51.03000259
C    19.22999954  11.95000076  50.72999954
C    14.94999981  12.42000008  49.82999802
C    14.40999985  13.05999947  50.97999954
C    13.04999924  13.48000050  51.00000000
C    22.92000008  10.98000050  50.51000214
H    23.14328003  11.16006565  51.56158447
H    18.67000008  13.01000023  52.54000092
H    17.04000092  11.33999920  48.11000061
H    19.30999947  10.98000050  47.54000092
H    21.65999985  10.59000015  48.06000137
H    20.94000053  12.27000046  51.97000122
H    12.61999989  14.06999969  51.79999924
H    23.05999947   9.92000008  50.26000214
H    23.54999924  11.59000015  49.84000397
S    11.46000004  12.05000019  47.60000229
C     8.80999947  12.43000031  48.48999786
C    10.18000031  12.64999962  48.70999908
C    10.72000027  13.07000065  50.00000000
C     9.84000015  13.53999996  50.91999817
C     8.40999985  13.55000019  50.66999817
C     7.42999983  14.17000008  51.45999908
C     6.09000015  14.21000004  51.11999893
C     5.63000011  13.60999966  49.88999939
C     6.52999973  12.97000027  49.09000015
C     7.88999987  12.86000061  49.45000076
C    12.15999985  12.97000027  50.05000305
C    12.72999954  12.41000080  48.80000305
C    14.09999943  12.10000038  48.70999908
C     4.28000021  13.89999962  49.36999893
H     4.15086508  13.62738228  48.32257080
H     8.55000019  12.17000008  47.45999908
H    10.21999931  14.11999893  51.76000214
H     7.82999992  14.67000008  52.34000397
H     5.49000025  14.94999981  51.63999939
H     6.19000006  12.48000050  48.18000031
H    14.48999977  11.57999992  47.84000015
H     4.18000031  14.98000050  49.48999786
H     3.49000001  13.48999977  50.00999832
