96

S    12.32999992  16.28000069  44.18000031
C     9.72000027  16.97999954  44.85000229
C    10.95999908  16.51000023  45.20999908
C    11.23999977  16.11999893  46.58000183
C    10.26000023  16.18000031  47.55000305
C     8.92000008  16.72999954  47.27000427
C     7.79999971  16.72000122  48.13999939
C     6.57999992  17.17000008  47.75000000
C     6.35999966  17.52000046  46.42000198
C     7.44999981  17.60000038  45.52000046
C     8.71999931  17.14999962  45.87999725
C    12.67000008  15.88999939  46.75000000
C    13.43999958  16.11999893  45.50000000
C    14.84000015  16.03999901  45.40000153
C     5.00999975  17.97000122  45.80999756
H     4.74991417  17.43577003  44.89618683
H     9.53999996  17.29999924  43.81999969
H    10.46000004  15.81999969  48.54999924
H     7.83999968  16.22999954  49.09999847
H     5.79999971  17.15999985  48.50999832
H     7.31999969  17.79999924  44.47000122
H    15.29999924  16.29999924  44.45000076
H     4.19000006  17.86000061  46.52999878
H     5.13000011  19.04000092  45.63999939
S    15.90000057  15.15999985  49.16999817
C    18.67000008  14.88999939  48.34999847
C    17.35000038  15.14999962  48.00000000
C    16.97999954  15.43000031  46.63999939
C    18.04999924  15.70000076  45.77000046
C    19.38999939  15.38000011  46.00999832
C    20.48000145  15.40999985  45.07999802
C    21.83000183  15.26000023  45.52000046
C    22.04999924  14.73999977  46.79000092
C    21.02999878  14.47000027  47.70999908
C    19.65999985  14.89999962  47.32999802
C    15.57000065  15.62999916  46.53999710
C    14.81999969  15.47000027  47.77999878
C    13.43999958  15.60999966  47.88000107
C    23.40999985  14.40000057  47.18999863
H    23.71235466  14.85704899  48.13222504
H    18.95000076  14.48999977  49.31999969
H    17.84000015  16.07999992  44.77000427
H    20.26000023  15.64000034  44.03999710
H    22.62000084  15.34999943  44.77000427
H    21.21999931  13.97999954  48.66000366
H    13.04999924  15.52000046  48.88999939
H    24.04999924  14.86999989  46.42000198
H    23.57999992  13.31999969  47.21000290
S    16.03000069  12.60000038  52.43000031
C    18.56999969  12.15999985  51.63000107
C    17.25000000  12.07999992  51.33999634
C    16.76000023  11.69000053  50.06000137
C    17.70000076  11.35000038  49.09999847
C    19.07999992  11.31999969  49.40999985
C    20.00000000  11.03999996  48.34999847
C    21.34000015  10.98999977  48.72000122
C    21.80000114  11.28000069  50.01999664
C    20.88000107  11.64000034  51.04000092
C    19.52999878  11.68000031  50.72000122
C    15.31999969  11.89000034  50.00000000
C    14.78000069  12.42000008  51.20999908
C    13.45000076  12.90999985  51.24000168
C    23.21000099  11.06999969  50.45000076
H    23.48070908  11.44313812  51.43771744
H    18.82999992  12.48000050  52.63000107
H    17.38999939  11.23999977  48.06999969
H    19.70999908  10.86999989  47.31999969
H    22.07999992  10.80000019  47.95000076
H    21.09999847  11.84999943  52.08000183
H    12.97000027  13.21000004  52.16999817
H    23.23999786   9.98999977  50.63999939
H    23.88999939  11.21000099  49.59999847
S    12.10999966  12.18999958  47.64999771
C     9.47000027  12.71000004  48.43000031
C    10.77999973  12.71999931  48.68999863
C    11.28999901  13.19000053  49.97000122
C    10.40999985  13.52000046  50.93999863
C     9.02000046  13.63000011  50.65000153
C     8.11999989  14.01000023  51.68000031
C     6.76999998  14.04999924  51.38999939
C     6.35999966  13.92000008  50.07999802
C     7.17999983  13.30999947  49.13999939
C     8.57999992  13.17000008  49.40000153
C    12.71999931  12.92000008  50.11000061
C    13.30999947  12.30000019  48.95000076
C    14.59000015  11.80999947  48.88000107
C     4.94999981  14.14000034  49.71000290
H     4.67898607  13.67642403  48.76145172
H     9.01000023  12.43000031  47.48000336
H    10.78999996  13.48999977  51.95999908
H     8.46000004  14.32999992  52.65999603
H     6.15000010  14.40000057  52.21000290
H     6.76000023  13.10999966  48.15999985
H    15.00000000  11.52999973  47.90999985
H     4.72000027  15.21000004  49.73999786
H     4.28999996  13.71999931  50.47999954
