96

S    11.84000015  16.70999908  44.20999908
C     9.17000008  17.13000107  44.95999908
C    10.43000031  16.81999969  45.28999710
C    10.82999992  16.38000107  46.59999847
C     9.92000008  16.25000000  47.56999969
C     8.56999969  16.59000015  47.31999969
C     7.57000017  16.55999947  48.29999924
C     6.25999975  16.98999977  48.08000183
C     5.89999962  17.46999931  46.77999878
C     6.88000011  17.46999931  45.81999969
C     8.23999977  17.06999969  46.03000259
C    12.27000046  15.98999977  46.63999939
C    12.94999981  16.03999901  45.41999817
C    14.28999996  15.75000000  45.31999969
C     4.51999998  18.06999969  46.42000198
H     4.10941982  17.48244476  45.59884262
H     8.85000038  17.42000008  43.95999908
H    10.15999985  15.75000000  48.50999832
H     7.82000017  16.25000000  49.31000137
H     5.59000015  17.20000076  48.89999771
H     6.70000029  17.95999908  44.86999893
H    14.89999962  15.76000023  44.41999817
H     3.73000002  17.95999908  47.16999817
H     4.44999981  19.07999992  46.00999832
S    15.44999981  15.32999992  49.13000107
C    18.07999992  14.73999977  48.46000290
C    16.84000015  15.19000053  48.09000015
C    16.45000076  15.51000023  46.72000122
C    17.43999863  15.52999973  45.84000015
C    18.78000069  15.21999931  46.19999695
C    19.77000046  15.14000034  45.13999939
C    21.05999947  14.77000046  45.45999908
C    21.38000107  14.22999954  46.75000000
C    20.43000031  14.17000008  47.71999741
C    19.13999939  14.77000046  47.51999664
C    15.01999950  15.54999924  46.51000214
C    14.40000057  15.55999947  47.75000000
C    13.02000046  15.84000015  47.80000305
C    22.79999924  13.82999992  47.12999725
H    23.13408661  14.37733555  48.01142120
H    18.05999947  14.26000023  49.43000031
H    17.18000031  15.71000004  44.79999924
H    19.37999916  15.19999981  44.13000107
H    21.77000046  14.70999908  44.64000320
H    20.75000000  13.92000008  48.73000336
H    12.48000050  15.84000015  48.74000168
H    23.38999939  13.96000004  46.22000122
H    22.79999924  12.74000072  47.28000259
S    11.96000004  17.00000000  51.23000336
C     9.30999947  17.25000000  51.95999908
C    10.57000065  16.84999847  52.28000259
C    10.95999908  16.32999992  53.61000061
C     9.92000008  16.22999954  54.54000092
C     8.56999969  16.59000015  54.22999954
C     7.51999950  16.51000023  55.12000275
C     6.32999992  17.11000061  54.82999802
C     6.05000019  17.77000046  53.54999924
C     7.03000021  17.81999969  52.57999802
C     8.25000000  17.27000046  52.93000031
C    12.35000038  16.18000031  53.75999832
C    13.05999947  16.44000053  52.60000229
C    14.37999916  16.20000076  52.38999939
C     4.55000019  18.11000061  53.22000122
H     4.13084745  17.55353928  52.38169098
H     9.11999989  17.69000053  50.98999786
H    10.10000038  15.90999985  55.56000137
H     7.78999996  16.17000008  56.11000061
H     5.51999998  17.11000061  55.54999924
H     6.81999969  18.20000076  51.58000183
H    14.81999969  16.46000099  51.44000244
H     3.97000027  17.81999969  54.09999847
H     4.59000015  19.19999886  53.11999893
S    15.76000023  15.21999931  56.04000092
C    18.38999939  15.05000019  55.17000198
C    17.05999947  15.36000061  54.87999725
C    16.67000008  15.81999969  53.57999802
C    17.59000015  15.88000107  52.55000305
C    18.98999977  15.59999943  52.83000183
C    20.03000069  15.54999924  51.84000015
C    21.30000114  15.22999954  52.22999954
C    21.70000076  15.06000042  53.55999756
C    20.75000000  15.05000019  54.52999878
C    19.37999916  15.31000042  54.19000244
C    15.18000031  15.93999958  53.50000000
C    14.55000019  15.65999985  54.78000259
C    13.14000034  15.85000038  54.88999939
C    23.15000153  14.68999958  53.96999741
H    23.39807129  14.93117905  55.00362778
H    18.64999962  14.67000008  56.16000366
H    17.26000023  16.21999931  51.56999969
H    19.72999954  15.53999996  50.79000092
H    21.97999954  15.10000038  51.39999771
H    20.79000092  14.53999996  55.48999786
H    12.64000034  15.57999992  55.81999969
H    23.82999802  15.01000023  53.18000031
H    23.06999969  13.60000038  53.86000061
