96

S    12.20000076  16.67000008  44.25000000
C     9.52999973  17.07999992  45.14999771
C    10.82999992  16.65999985  45.40999985
C    11.18999958  16.23999977  46.70000076
C    10.21999931  16.05999947  47.70000076
C     8.90999985  16.36000061  47.37999725
C     7.81000042  16.03000069  48.27999878
C     6.56000042  16.54999924  48.09999847
C     6.28999996  17.26000023  46.90000153
C     7.23000002  17.40999985  45.91999817
C     8.55000019  17.00000000  46.13999939
C    12.64000034  16.13000107  46.81999969
C    13.30999947  16.21999931  45.56999969
C    14.65999985  16.35000038  45.47999954
C     4.88999987  17.80999947  46.59999847
H     4.44482136  17.21642876  45.80150604
H     9.17000008  17.65999985  44.31000137
H    10.59000015  15.65999985  48.63999939
H     8.05999947  15.71000004  49.29000092
H     5.78000021  16.50000000  48.86000061
H     6.88000011  17.71999931  44.93999863
H    15.24000072  16.62999916  44.61000061
H     4.30999994  17.79999924  47.52999878
H     4.82999992  18.86999893  46.31999969
S    15.80999947  15.32999992  49.10999680
C    18.48999977  15.05000019  48.39000320
C    17.21999931  15.42000008  48.06999969
C    16.82999992  15.93000031  46.76000214
C    17.79000092  15.95000076  45.70999908
C    19.11999893  15.52999973  46.03000259
C    20.09000015  15.40999985  45.00000000
C    21.42999840  15.14999962  45.22999573
C    21.84000015  14.88999939  46.55000305
C    20.94000053  14.77000046  47.54000092
C    19.55000114  15.13000011  47.34000397
C    15.43000031  16.15999985  46.68000031
C    14.78000069  15.90999985  47.87000275
C    13.42000008  16.02000046  47.98999786
C    23.31000137  14.70000076  46.75000000
H    23.59524536  14.64434242  47.80054092
H    18.71999931  14.65000057  49.36999893
H    17.53999901  16.21999931  44.68000031
H    19.82999992  15.57000065  43.95000076
H    22.07999992  15.22999954  44.36000061
H    21.21999931  14.37999916  48.52000427
H    13.03999996  16.11999893  49.00000000
H    23.81999969  15.48999977  46.18000031
H    23.51000023  13.73000050  46.27999878
S    11.82999992  17.04000092  50.87999725
C     9.22000027  17.28999901  51.52999878
C    10.44999981  17.02999878  51.95999908
C    10.71000004  16.79000092  53.33000183
C     9.72999954  16.77999878  54.31000137
C     8.39999962  16.97999954  53.81999969
C     7.35000038  17.12000084  54.73999786
C     6.09000015  17.46999931  54.38999939
C     5.73000002  17.67000008  53.06999969
C     6.77999973  17.50000000  52.06999969
C     8.14000034  17.23999977  52.43000031
C    12.11999989  16.70999908  53.50000000
C    12.89999962  16.77000046  52.30999756
C    14.21000004  16.54999924  52.25999832
C     4.32000017  17.94999886  52.58999634
H     3.95714426  17.53530693  51.64953613
H     9.18000031  17.39999962  50.45000076
H     9.94999981  16.84999847  55.37000275
H     7.59999990  17.13999939  55.79999924
H     5.32999992  17.59000015  55.15999603
H     6.63000011  17.86999893  51.05999756
H    14.68000031  16.64999962  51.27999878
H     3.68999982  17.67000008  53.43999863
H     4.11999989  19.03000069  52.54000092
S    15.39000034  15.60999966  55.90999985
C    18.07999992  15.29000092  55.22999573
C    16.79000092  15.72000027  54.85000229
C    16.40999985  16.20000076  53.56999969
C    17.42000008  16.32999992  52.70999908
C    18.75000000  16.01000023  53.02000046
C    19.77000046  15.95999908  51.98999786
C    20.96999931  15.25000000  52.22000122
C    21.32999802  14.80999947  53.54000092
C    20.38999939  14.89999962  54.52000046
C    19.13999939  15.52999973  54.29999924
C    14.93000031  16.32999992  53.39000320
C    14.26000023  16.17000008  54.61999893
C    12.84000015  16.34000015  54.64000320
C    22.67999840  14.25000000  53.90999603
H    22.97706985  14.84413815  54.77420044
H    18.30000114  14.63000107  56.05999756
H    17.07999992  16.54000092  51.69000244
H    19.52000046  16.13000107  50.94999695
H    21.67000008  14.98000050  51.43000031
H    20.56999969  14.56999969  55.54000092
H    12.34000015  16.18000031  55.59999847
H    23.48999977  14.27999973  53.18000031
H    22.62000084  13.20000076  54.22000122
