96

S    12.05999947  17.06999969  44.22999954
C     9.36999989  17.22999954  44.78000259
C    10.60999966  16.90000153  45.28999710
C    10.88999939  16.48999977  46.62000275
C     9.81999969  16.21999931  47.49000168
C     8.55000019  16.68000031  47.06999969
C     7.46999979  16.68000031  47.95999908
C     6.21999979  17.11000061  47.60000229
C     6.02999973  17.65999985  46.35000229
C     7.00999975  17.71999931  45.43000031
C     8.32999992  17.22999954  45.70999908
C    12.32999992  16.53000069  46.79999924
C    13.09999943  16.69999886  45.63000107
C    14.45000076  16.50000000  45.59999847
C     4.65000010  18.12999916  46.00000000
H     4.28661442  17.53600502  45.16141891
H     9.31999969  17.52000046  43.73000336
H     9.92000008  15.90999985  48.53000259
H     7.64999962  16.22999954  48.93000031
H     5.40000010  16.95000076  48.29999924
H     6.83000040  18.11000061  44.43000031
H    15.01999950  16.57999992  44.68000031
H     4.05000019  18.01000023  46.90000153
H     4.71000004  19.19999886  45.79999924
S    15.44999981  15.43000031  49.25000000
C    18.12000084  14.73000050  48.47999954
C    16.84999847  15.31000042  48.15999985
C    16.54999924  15.80000019  46.84999847
C    17.54999924  15.92000008  45.93999863
C    18.82999992  15.36999893  46.23000336
C    19.96000099  15.52999973  45.33000183
C    21.17000198  15.18000031  45.65000153
C    21.37000084  14.57999992  46.91999817
C    20.43000031  14.52000046  47.90000153
C    19.10000038  14.85999966  47.54000092
C    15.11000061  16.03999901  46.73999786
C    14.39000034  15.90999985  47.91999817
C    13.00000000  16.17000008  47.95999908
C    22.82999992  14.29999924  47.27000427
H    23.12863350  14.85559559  48.15895462
H    18.32999992  14.32000065  49.45999908
H    17.38000107  16.47999954  45.01999664
H    19.73999977  16.10000038  44.43000031
H    22.01000023  15.59000015  45.10000229
H    20.66999817  14.29999924  48.94000244
H    12.36999989  15.85999966  48.79000092
H    23.51000023  14.60000038  46.45999908
H    22.85000038  13.23999977  47.52999878
S    11.75000000  17.30999947  50.91999817
C     9.03999996  17.71999931  51.49000168
C    10.29999924  17.22999954  51.90999985
C    10.53999996  16.77999878  53.20000076
C     9.55000019  16.82999992  54.18000031
C     8.26000023  17.31999969  53.81000137
C     7.14999962  17.38000107  54.73999786
C     5.95000029  17.87999916  54.40000153
C     5.69000006  18.22999954  53.00000000
C     6.70000029  18.09000015  52.08000183
C     7.99000025  17.73999977  52.43000031
C    11.97999954  16.61000061  53.47000122
C    12.71999931  16.80999947  52.27000427
C    14.09000015  16.65999985  52.29000092
C     4.30000019  18.60000038  52.54000092
H     3.91815901  17.77022934  51.94520950
H     8.97999954  18.12000084  50.47999954
H     9.73999977  16.51000023  55.20999908
H     7.22000027  16.92000008  55.72000122
H     5.09999990  17.82999992  55.07999802
H     6.61000013  18.22000122  51.00999832
H    14.70999908  16.73999977  51.39999771
H     3.61000013  18.85000038  53.36000061
H     4.33999968  19.47000122  51.86999893
S    15.07999992  15.81999969  55.97000122
C    17.79999924  15.44000053  55.25000000
C    16.52000046  15.77999973  54.95999908
C    16.22999954  16.23999977  53.62999725
C    17.20999908  16.25000000  52.64999771
C    18.48999977  15.81999969  52.94000244
C    19.47999954  15.73999977  51.93000031
C    20.73999786  15.31000042  52.22000122
C    21.11000061  15.03000069  53.54999924
C    20.17000008  15.08999920  54.54000092
C    18.84000015  15.48999977  54.27999878
C    14.78999996  16.40999985  53.46000290
C    13.96999931  16.14999962  54.61999893
C    12.58999920  16.34000015  54.68999863
C    22.59000015  14.68999958  53.83999634
H    22.83824921  15.14999199  54.79648972
H    18.07999992  15.07999992  56.23000336
H    16.90999985  16.59000015  51.65999985
H    19.22999954  16.10000038  50.93999863
H    21.45999908  15.06999969  51.44000244
H    20.52000046  14.84000015  55.54000092
H    12.05000019  16.27000046  55.63000107
H    23.22000122  14.85000038  52.95999908
H    22.76000023  13.63999939  54.09999847
