96

S    11.96000004  16.90999985  44.34999847
C     9.35000038  17.35000038  45.00999832
C    10.57999992  16.90999985  45.38000107
C    10.88999939  16.39999962  46.63000107
C     9.85000038  16.31000137  47.56000137
C     8.53999996  16.77000046  47.19999695
C     7.44000006  16.39999962  48.04000092
C     6.24000025  16.93000031  47.67000198
C     5.97000027  17.73999977  46.47999573
C     7.07000017  17.94999886  45.63999939
C     8.36000061  17.46000099  45.98999786
C    12.31999969  16.21000099  46.75000000
C    13.02999973  16.47999954  45.56999969
C    14.40999985  16.44000053  45.44000244
C     4.51000023  18.02000046  46.04999924
H     4.21345854  17.58224869  45.09682846
H     9.19000053  17.73999977  44.01000214
H    10.05000019  15.86999989  48.54000092
H     7.59999990  15.77999973  48.92000198
H     5.38000011  16.50000000  48.18000031
H     7.03999996  18.25000000  44.59000015
H    14.88999939  16.67000008  44.48999786
H     3.81000018  17.77000046  46.84999847
H     4.46000004  19.10000038  45.90999985
S    15.59000015  15.71000004  49.19000244
C    18.25000000  15.22999954  48.47000122
C    17.00000000  15.60999966  48.11000061
C    16.61999893  15.95000076  46.77000046
C    17.67000008  15.93000031  45.80999756
C    19.01000023  15.55999947  46.17000198
C    20.09000015  15.43000031  45.31000137
C    21.35999870  15.17000008  45.70000076
C    21.64999962  14.73000050  47.00000000
C    20.53999901  14.60999966  47.83000183
C    19.26000023  15.17000008  47.49000168
C    15.18000031  16.06999969  46.56999969
C    14.48999977  15.98000050  47.80000305
C    13.10999966  16.03000069  47.90000153
C    23.01000214  14.28999996  47.43999863
H    23.33435631  14.75538063  48.37075806
H    18.50000000  14.96999931  49.48999786
H    17.35999870  16.04999924  44.78000259
H    19.88000107  15.77999973  44.29999924
H    22.14999962  15.31999969  44.97000122
H    20.69999886  14.14000034  48.80000305
H    12.64000034  15.93000031  48.87000275
H    23.72999954  14.42000008  46.62000275
H    22.95000076  13.21000004  47.63999939
S    16.28999901  13.03999996  52.25000000
C    18.78999901  12.58999920  51.38000107
C    17.46999931  12.61999989  51.03000259
C    16.97000122  12.20000076  49.75999832
C    17.86999893  11.63000011  48.88000107
C    19.25000000  11.56000042  49.20999908
C    20.22999954  10.95999908  48.36000061
C    21.54000092  10.77999973  48.74000168
C    21.90000153  11.05000019  50.06000137
C    20.97999954  11.59000015  50.98999786
C    19.70000076  11.92000008  50.54000092
C    15.51000023  12.20999908  49.86000061
C    14.98999977  12.69999981  51.07999802
C    13.63000011  12.77999973  51.36000061
C    23.35000038  10.67000008  50.47999954
H    23.61649513  10.93649578  51.50276947
H    19.07999992  12.84000015  52.38999939
H    17.53999901  11.30000019  47.88999939
H    19.93000031  10.60999966  47.37999725
H    22.27000046  10.36000061  48.04999924
H    21.14999962  11.69000053  52.05999756
H    13.40000057  13.15000057  52.35000229
H    23.35000038   9.59000015  50.28999710
H    24.01000023  11.17000008  49.77000427
S    11.97999954  12.06999969  47.78999710
C     9.34000015  12.51999950  48.53000259
C    10.67999935  12.44999981  48.88999939
C    11.19999981  12.82999992  50.18000031
C    10.26999950  13.30000019  51.11999893
C     8.85999966  13.40999985  50.79000092
C     7.95000029  14.14999962  51.66999817
C     6.61999989  14.23999977  51.38000107
C     6.11999989  13.66000080  50.20999908
C     6.97000027  13.02999973  49.31999969
C     8.38000011  12.94999981  49.52999878
C    12.71999931  12.58999920  50.30000305
C    13.25000000  12.15000057  49.05000305
C    14.60999966  11.90000057  48.81999969
C     4.69000006  13.93000031  49.80999756
H     4.44891310  13.61091518  48.79601288
H     9.04999924  12.17000008  47.55000305
H    10.52000046  13.92000008  51.97999954
H     8.46000004  14.75000000  52.42000198
H     6.02999973  14.91000080  52.01000214
H     6.61000013  12.79999924  48.31999969
H    14.96000099  11.57999992  47.84999847
H     4.46000004  14.98000050  50.00000000
H     3.91000009  13.53000069  50.47000122
