96

S    12.13999939  16.44000053  44.29000092
C     9.46000004  16.79000092  45.01999664
C    10.67999935  16.27000046  45.33000183
C    11.05999947  15.76000023  46.65000153
C    10.11000061  15.75000000  47.60000229
C     8.82000065  16.25000000  47.25999832
C     7.76000023  16.10000038  48.20999908
C     6.46000004  16.32999992  47.85999680
C     6.10000038  16.84000015  46.55000305
C     7.11999989  17.02000046  45.68000031
C     8.46000004  16.76000023  45.94999695
C    12.53999901  15.77000046  46.79999924
C    13.22999954  15.98000050  45.59000015
C    14.55999947  16.11999893  45.52000046
C     4.75000000  17.39999962  46.18000031
H     4.31297159  16.79260445  45.38742447
H     9.25000000  17.14999962  44.02000046
H    10.39999962  15.50000000  48.61000061
H     7.96999979  15.80999947  49.22999954
H     5.60999966  16.27000046  48.53000259
H     6.96000004  17.36999893  44.65999985
H    15.01000023  16.26000023  44.54000092
H     4.15999985  17.35999870  47.09999847
H     4.92000008  18.42000008  45.81999969
S    15.78999996  15.11999989  49.15999985
C    18.30999947  14.68999958  48.39000320
C    17.14999962  15.22999954  48.06999969
C    16.80999947  15.65000057  46.77999878
C    17.89999962  15.77000046  45.86000061
C    19.18000031  15.31000042  46.18000031
C    20.28000069  15.26000023  45.33000183
C    21.48999977  14.85000038  45.72999954
C    21.65999985  14.28999996  46.97000122
C    20.59000015  14.11999893  47.83000183
C    19.36000061  14.75000000  47.50000000
C    15.31999969  15.81999969  46.68000031
C    14.67000008  15.53999996  47.90999985
C    13.27000046  15.52000046  47.97999954
C    23.05000114  13.99000072  47.45999908
H    23.37654877  14.64309883  48.26927567
H    18.42000008  14.11000061  49.31000137
H    17.70000076  16.25000000  44.89999771
H    20.12000084  15.57999992  44.31000137
H    22.32999992  14.93000031  45.05000305
H    20.65000153  13.64999962  48.80000305
H    12.67000008  15.13000011  48.80000305
H    23.88999939  14.11000061  46.76000214
H    23.02000046  12.94999981  47.81999969
S    15.48999977  12.71000004  52.32999802
C    18.17000008  12.06999969  51.63999939
C    16.82999992  12.20000076  51.29000092
C    16.36999893  11.77000046  49.94999695
C    17.34000015  11.28000069  49.12000275
C    18.64999962  11.13999939  49.45000076
C    19.59000015  10.67000008  48.52000427
C    20.92000008  10.52000046  48.89999771
C    21.38999939  10.90999985  50.11000061
C    20.51000214  11.47999954  51.03000259
C    19.10000038  11.61000061  50.70999908
C    14.91000080  11.92000008  49.75999832
C    14.30999947  12.48000050  50.97000122
C    13.04999924  12.97000027  50.90999985
C    22.92000008  10.84000015  50.31000137
H    23.15176582  11.18765068  51.31674194
H    18.45999908  12.20000076  52.68000031
H    17.02000046  11.03000069  48.09999847
H    19.30999947  10.55999947  47.48000336
H    21.56999969  10.13000011  48.13000107
H    20.86999893  11.78999996  52.01000214
H    12.50000000  13.42000008  51.73999786
H    23.15000153   9.77000046  50.31999969
H    23.45000076  11.14999962  49.40000153
S    11.72000027  12.01000023  47.21000290
C     9.11000061  12.53000069  47.91999817
C    10.43000031  12.57999992  48.22999954
C    10.90000057  12.93000031  49.51000214
C     9.90999985  13.27000046  50.47000122
C     8.50000000  13.22999954  50.13999939
C     7.55000019  13.60000038  51.11000061
C     6.17999983  13.50999928  50.76000214
C     5.73999977  13.20000076  49.45999908
C     6.63999987  12.76999950  48.52000427
C     8.05000019  12.84000015  48.81000137
C    12.34000015  12.81000042  49.72999954
C    12.90999985  12.18999958  48.57999802
C    14.25000000  11.71000004  48.57999802
C     4.30999994  13.48000050  49.15999985
H     4.08893299  13.15576839  48.14308929
H     8.94999981  12.05999947  46.95999908
H    10.26000023  13.40999985  51.49000168
H     7.90999985  13.73000050  52.12999725
H     5.38000011  13.88000011  51.38999939
H     6.28999996  12.55000019  47.50999832
H    14.78000069  11.38000011  47.69000244
H     4.15999985  14.52999973  49.43000031
H     3.53999996  13.02000046  49.79000092
