96

S    12.30000019  16.73999977  44.13999939
C     9.52999973  17.05000114  44.79000092
C    10.81999969  16.65999985  45.13000107
C    11.18999958  16.36999893  46.51000214
C    10.10000038  16.29999924  47.42000198
C     8.78000069  16.64999962  47.09000015
C     7.72000027  16.56999969  48.06999969
C     6.51000023  17.01000023  47.74000168
C     6.15999985  17.38000107  46.42000198
C     7.13999987  17.38999939  45.43000031
C     8.50000000  17.07999992  45.73999786
C    12.63000011  16.18000031  46.69000244
C    13.30999947  16.38000107  45.45999908
C    14.72000027  16.36999893  45.41999817
C     4.71000004  17.75000000  46.04000092
H     4.43340683  17.16844559  45.16057587
H     9.35000038  17.39999962  43.77999878
H    10.32999992  16.03000069  48.44999695
H     7.97999954  16.22999954  49.06999969
H     5.73999977  17.02000046  48.50999832
H     6.94000006  17.59000015  44.38000107
H    15.19999981  16.51000023  44.45000076
H     4.05999994  17.54999924  46.90000153
H     4.71000004  18.84000015  45.90999985
S    15.81999969  15.72999954  49.20999908
C    18.37000084  14.80999947  48.33000183
C    17.14999962  15.40999985  48.08000183
C    16.84000015  15.86999989  46.69000244
C    17.79000092  15.73999977  45.70999908
C    19.02000046  15.25000000  45.98999786
C    20.09000015  15.21000004  45.00000000
C    21.38999939  14.80000019  45.35999680
C    21.73999977  14.37999916  46.63999939
C    20.69000053  14.23999977  47.62000275
C    19.36000061  14.70999908  47.29999924
C    15.43000031  16.14999962  46.59999847
C    14.75000000  16.00000000  47.84999847
C    13.35000038  16.03000069  47.87000275
C    23.12999916  14.02999973  46.97000122
H    23.38699341  14.39812565  47.96324539
H    18.76000023  14.40999985  49.27000046
H    17.56000137  16.09000015  44.71000290
H    19.88000107  15.76000023  44.09000015
H    22.27000046  14.98000050  44.73999786
H    20.96999931  13.71000099  48.53000259
H    12.79000092  15.95000076  48.79000092
H    23.90000153  14.32000065  46.24000168
H    23.15000153  12.93000031  46.86999893
S    11.56999969  17.11000061  50.94999695
C     8.80000019  17.26000023  51.66999817
C    10.18000031  16.90000153  51.93999863
C    10.57000065  16.46000099  53.29000092
C     9.55000019  16.31000137  54.19000244
C     8.27999973  16.87999916  54.03999710
C     7.18999958  16.95000076  55.05000305
C     5.96000004  17.40999985  54.73999786
C     5.64000034  17.86000061  53.44999695
C     6.61000013  17.86000061  52.43000031
C     7.86999989  17.27000046  52.71999741
C    12.02999973  16.50000000  53.47999954
C    12.64999962  16.79999924  52.25999832
C    14.00000000  16.80999947  52.12999725
C     4.26999998  18.39999962  53.06999969
H     3.95797873  17.82559776  52.19775772
H     8.56000042  17.85000038  50.79999924
H     9.78999996  15.88000107  55.15999603
H     7.46999979  16.60000038  56.04999924
H     5.13999987  17.47999954  55.45000076
H     6.48999977  18.20999908  51.40999603
H    14.40999985  16.82999992  51.11999893
H     3.58000016  18.30000114  53.90999603
H     4.36999989  19.42000008  52.67000198
S    15.22999954  15.52000046  55.72999954
C    17.86999893  14.86999989  54.86000061
C    16.61999893  15.39000034  54.59999847
C    16.26000023  16.00000000  53.31999969
C    17.29999924  16.04999924  52.38999939
C    18.57999992  15.55999947  52.64999771
C    19.52000046  15.53999996  51.59999847
C    20.79000092  15.08999920  51.77999878
C    21.18999863  14.65999985  53.11999893
C    20.22999954  14.51000023  54.10999680
C    18.86000061  14.96000099  53.89999771
C    14.85000038  16.45000076  53.23999786
C    14.14999962  16.15999985  54.48999786
C    12.76999950  16.07999992  54.54999924
C    22.67999840  14.45000076  53.40999985
H    22.88139153  14.81548786  54.41695404
H    18.26000023  14.47000027  55.79000092
H    17.15999985  16.53000069  51.42000198
H    19.22000122  15.98999977  50.65999985
H    21.47000122  15.18000031  50.93999863
H    20.30999947  14.04999924  55.08999634
H    12.25999928  15.78999996  55.47000122
H    23.09000015  15.07999992  52.62000275
H    22.93000031  13.38000107  53.29000092
