96

S    12.17000008  16.72000122  44.36000061
C     9.50000000  16.81999969  44.91000366
C    10.76000023  16.46000099  45.28999710
C    11.10000038  16.10000038  46.69000244
C    10.03000069  16.03999901  47.63000107
C     8.67999935  16.35000038  47.29000092
C     7.57000017  16.23999977  48.15000153
C     6.28999996  16.69000053  47.75000000
C     6.07999992  17.14999962  46.45999908
C     7.11000013  17.17000008  45.56000137
C     8.45000076  16.81999969  45.96000290
C    12.53000069  16.02000046  46.90000153
C    13.25000000  16.35000038  45.70999908
C    14.63000107  16.46999931  45.68999863
C     4.61999989  17.48999977  46.06999969
H     4.24599648  16.90429688  45.23025513
H     9.36999989  17.10000038  43.86000061
H    10.19000053  15.77000046  48.68000031
H     7.76999998  15.78999996  49.12000275
H     5.36999989  16.47999954  48.29000092
H     6.98999977  17.32999992  44.48999786
H    15.11999989  16.73999977  44.75999832
H     3.89999986  17.30999947  46.88000107
H     4.61999989  18.53000069  45.75000000
S    15.71000004  15.17000008  49.23999786
C    18.27999878  14.73999977  48.55999756
C    17.12000084  15.21999931  48.23999786
C    16.77000046  15.73999977  46.98999786
C    17.78000069  15.92000008  46.11999893
C    19.10000038  15.43000031  46.42000198
C    20.15999985  15.51000023  45.44000244
C    21.37000084  14.92000008  45.75000000
C    21.57999992  14.22999954  46.97999954
C    20.62999916  14.21000004  47.91999817
C    19.38999939  14.78999996  47.67000198
C    15.34999943  15.97000027  46.84000015
C    14.61999989  15.62000084  47.97000122
C    13.25000000  15.70000076  48.02999878
C    22.88000107  13.67000008  47.31999969
H    23.39407349  14.33899784  48.01012421
H    18.39999962  14.21000004  49.51000214
H    17.60000038  16.29999924  45.12000275
H    19.79999924  15.81999969  44.45999908
H    22.18000031  15.03000069  45.04000092
H    20.78000069  13.73000050  48.88000107
H    12.69000053  15.39000034  48.90999603
H    23.50000000  13.48000050  46.44000244
H    22.57999802  12.72999954  47.80000305
S    12.07999992  16.63999939  51.05999756
C     9.36999989  16.79000092  51.76000214
C    10.62999916  16.39999962  52.11000061
C    10.98000050  15.97000027  53.40000153
C     9.96000004  15.72999954  54.29999924
C     8.64000034  16.23999977  53.96999741
C     7.63999987  16.13000107  54.94999695
C     6.35999966  16.60000038  54.75999832
C     6.11000013  17.13999939  53.47999954
C     7.03000021  17.21999931  52.47000122
C     8.36999989  16.76000023  52.70000076
C    12.43999958  15.85999966  53.57999802
C    13.14000034  16.26000023  52.38999939
C    14.55000019  16.38000107  52.30999756
C     4.55000019  17.61999893  53.09999847
H     4.20688629  17.13277817  52.18731689
H     9.17000008  17.36999893  50.86000061
H    10.11999989  15.53999996  55.35999680
H     7.90999985  15.67000008  55.90000153
H     5.69999981  16.69999886  55.61999893
H     6.72999954  17.68000031  51.52999878
H    14.96000099  16.72999954  51.36000061
H     3.88000011  17.38000107  53.94000244
H     4.51999998  18.71000099  52.94000244
S    15.69000053  14.98000050  55.76000214
C    18.37000084  14.70000076  55.04000092
C    17.10000038  15.06000042  54.65999985
C    16.72000122  15.62999916  53.40999985
C    17.72999954  15.81999969  52.44999695
C    19.05999947  15.32999992  52.72999573
C    20.09000015  15.40999985  51.76000214
C    21.38000107  15.03000069  52.09000015
C    21.73999977  14.60000038  53.34999847
C    20.69999886  14.50000000  54.23999786
C    19.36000061  14.78000069  54.05000305
C    15.29999924  15.93000031  53.40000153
C    14.59000015  15.59000015  54.55999756
C    13.19000053  15.51000023  54.69999695
C    23.16999817  14.42000008  53.77999878
H    23.39367676  14.83849144  54.76129150
H    18.63999939  14.48999977  56.06999969
H    17.48999977  16.32999992  51.52000046
H    19.70999908  15.82999992  50.83000183
H    22.19000053  15.11999989  51.36000061
H    20.98999977  14.26000023  55.26000214
H    12.81000042  15.34999943  55.70999908
H    23.82999802  14.92000008  53.06000137
H    23.32999992  13.32999992  53.75000000
