96

S    12.23000050  16.95000076  44.10999680
C     9.61999989  17.28999901  44.72999954
C    10.85999966  16.87000084  45.13000107
C    11.19999981  16.45000076  46.43000031
C    10.19000053  16.52000046  47.39999771
C     8.89999962  16.93000031  47.08000183
C     7.92999983  16.97999954  48.08000183
C     6.70000029  17.43999863  47.74000168
C     6.34999990  17.75000000  46.38000107
C     7.30999994  17.70000076  45.38999939
C     8.60999966  17.30999947  45.72999954
C    12.60000038  16.29999924  46.63999939
C    13.30000019  16.54000092  45.47999954
C    14.65999985  16.31999969  45.33000183
C     4.94000006  18.12000084  46.00999832
H     4.60340118  17.49916267  45.17972183
H     9.35999966  17.46000099  43.68999863
H    10.40999985  16.28999901  48.44999695
H     8.11999989  16.54000092  49.06000137
H     5.88999987  17.27000046  48.43000031
H     7.17000008  18.02999878  44.36999893
H    15.11999989  16.43000031  44.34999847
H     4.28999996  17.97000122  46.88999939
H     5.07000017  19.17000008  45.72999954
S    15.78999996  15.55999947  49.02999878
C    18.44000053  14.98999977  48.30999756
C    17.21999931  15.43000031  47.95999908
C    16.87999916  15.77000046  46.60999680
C    17.86000061  15.77000046  45.61000061
C    19.17000008  15.36999893  45.98999786
C    20.22000122  15.17000008  45.01999664
C    21.45000076  14.72000027  45.45000076
C    21.70999908  14.50000000  46.79999924
C    20.75000000  14.56999969  47.70999908
C    19.45999908  14.96999931  47.32999802
C    15.47000027  15.97000027  46.44000244
C    14.72000027  15.85999966  47.65999603
C    13.32999992  15.90999985  47.72999573
C    23.12999916  14.35999966  47.23999786
H    23.29579353  14.64833641  48.27801132
H    18.79999924  14.75000000  49.31000137
H    17.61000061  16.10999870  44.61000061
H    20.09000015  15.32999992  43.95000076
H    22.20999908  14.68999958  44.66999817
H    20.95000076  14.39000034  48.75999832
H    12.89000034  15.60999966  48.68000031
H    23.68999863  15.11000061  46.65999985
H    23.44000053  13.31999969  47.09999847
S    12.05999947  17.00000000  50.98999786
C     9.44999981  17.43000031  51.66999817
C    10.67999935  17.05000114  52.05999756
C    11.00999928  16.72000122  53.40000153
C     9.98000050  16.72000122  54.29000092
C     8.61999989  16.98999977  53.88999939
C     7.50999975  16.94000053  54.78000259
C     6.35999966  17.46000099  54.40000153
C     6.11999989  17.97999954  53.08000183
C     7.07999992  17.88999939  52.21000290
C     8.32999992  17.38999939  52.54000092
C    12.43999958  16.54000092  53.55999756
C    13.10999966  16.72000122  52.31999969
C    14.51000023  16.68000031  52.28000259
C     4.72000027  18.47999954  52.69000244
H     4.32683277  17.78659630  51.94655609
H     9.31999969  18.02000046  50.77000046
H    10.15999985  16.54999924  55.34999847
H     7.73000002  16.69999886  55.81999969
H     5.49000025  17.43000031  55.05000305
H     6.96000004  18.36000061  51.23000336
H    14.98999977  16.72000122  51.31000137
H     4.11000013  18.57999992  53.60000229
H     4.78999996  19.50000000  52.30999756
S    15.52999973  15.59999943  55.90000153
C    18.25000000  15.22999954  55.19000244
C    16.95999908  15.57999992  54.86999893
C    16.64999962  16.03000069  53.54999924
C    17.65999985  16.06999969  52.55000305
C    18.97999954  15.67999935  52.81999969
C    20.06999969  15.65000057  51.86999893
C    21.31999969  15.14999962  52.12999725
C    21.63000107  14.81999969  53.47999954
C    20.65999985  14.82999992  54.48999786
C    19.29000092  15.21999931  54.20000076
C    15.27999973  16.38000107  53.37999725
C    14.55000019  16.21000099  54.59000015
C    13.12999916  16.22999954  54.68999863
C    23.02999878  14.51000023  53.87000275
H    23.27204323  14.97941589  54.82350540
H    18.47999954  14.89999962  56.19999695
H    17.34000015  16.59000015  51.65000153
H    19.96000099  16.21000099  50.94999695
H    22.09000015  15.18000031  51.37000275
H    20.88000107  14.65999985  55.54000092
H    12.58999920  15.82999992  55.54000092
H    23.64999962  14.96000099  53.09000015
H    23.16999817  13.42000008  53.81000137
