96

S    12.02999973  16.56999969  44.27000046
C     9.32999992  16.84999847  45.11000061
C    10.62000084  16.40999985  45.31999969
C    10.98000050  16.03000069  46.63999939
C     9.96999931  16.00000000  47.62000275
C     8.63000011  16.55999947  47.41000366
C     7.68000031  16.69999886  48.40000153
C     6.48000002  17.25000000  48.18999863
C     6.05999994  17.48999977  46.88000107
C     6.97000027  17.35999870  45.81999969
C     8.30000019  16.88999939  46.07999802
C    12.41000080  15.85000038  46.76000214
C    13.14000034  16.07999992  45.56999969
C    14.52999973  16.06999969  45.56000137
C     4.59999990  17.70000076  46.59000015
H     4.30728960  16.97519302  45.83034515
H     9.11000061  17.07999992  44.06999969
H    10.26999950  15.75000000  48.63999939
H     7.92000008  16.26000023  49.36000061
H     5.88000011  17.56999969  49.03999710
H     6.71000004  17.42000008  44.77000427
H    14.98000050  16.32999992  44.59999847
H     4.00999975  17.43000031  47.47000122
H     4.42000008  18.72999954  46.25999832
S    15.57999992  15.36000061  49.26000214
C    18.22000122  14.85000038  48.52000427
C    16.95999908  15.36999893  48.16999817
C    16.61999893  15.86999989  46.90000153
C    17.64000130  15.95000076  45.98999786
C    18.90999985  15.31999969  46.23000336
C    20.00000000  15.40999985  45.25000000
C    21.28000069  15.05000019  45.51000214
C    21.48999977  14.32999992  46.73999786
C    20.48000145  14.15999985  47.70999908
C    19.13999939  14.70999908  47.48000336
C    15.21000004  15.95000076  46.73999786
C    14.51000023  15.73999977  47.93000031
C    13.14000034  15.62999916  47.95000076
C    22.89999962  13.89999962  47.15999985
H    23.29337883  14.54371071  47.94675827
H    18.51000023  14.44000053  49.47999954
H    17.43000031  16.31999969  44.99000168
H    19.78999901  15.98999977  44.34999847
H    22.09000015  15.29999924  44.84000397
H    20.62999916  13.78999901  48.72000122
H    12.63000011  15.47000027  48.88999939
H    23.57000160  13.85000038  46.29000092
H    22.82999992  12.89000034  47.57999802
S    11.54999924  16.95000076  51.09000397
C     8.96000004  17.53999901  51.88000107
C    10.21000004  16.98999977  52.16999817
C    10.51000023  16.45000076  53.47999954
C     9.50000000  16.48999977  54.43000031
C     8.23999977  16.88999939  54.13000107
C     7.25000000  16.93000031  55.13999939
C     6.01000023  17.40999985  54.88999939
C     5.72000027  17.79999924  53.54999924
C     6.70000029  17.85000038  52.60000229
C     8.01000023  17.45000076  52.87000275
C    11.96000004  16.45000076  53.64999771
C    12.68000031  16.62999916  52.47000122
C    14.06999969  16.64999962  52.37999725
C     4.34999990  18.07999992  53.11999893
H     4.04980993  17.52150726  52.23339081
H     8.67999935  18.00000000  50.93999863
H     9.64999962  16.15999985  55.45000076
H     7.48000050  16.50000000  56.11000061
H     5.27999973  17.40999985  55.68999863
H     6.60000038  18.22999954  51.58000183
H    14.53999996  16.61000061  51.39999771
H     3.63999987  17.69000053  53.86000061
H     4.13999987  19.14999962  52.98999786
S    15.17000008  15.77000046  56.07999802
C    17.76000023  15.21000004  55.26000214
C    16.52000046  15.70000076  54.95999908
C    16.18000031  16.17000008  53.62999725
C    17.15999985  16.20000076  52.70000076
C    18.53999901  15.81999969  52.98999786
C    19.55999947  15.82999992  52.04999924
C    20.82999992  15.39000034  52.37999725
C    21.19999886  14.96999931  53.66000366
C    20.22000122  14.96999931  54.65999985
C    18.88000107  15.29999924  54.33000183
C    14.75000000  16.45000076  53.52000427
C    14.04999924  16.25000000  54.73999786
C    12.65999985  16.32999992  54.79000092
C    22.56999969  14.44000053  53.94000244
H    23.01224709  15.06963921  54.71205902
H    17.87999916  14.65999985  56.19999695
H    16.88999939  16.38000107  51.65999985
H    19.27000046  16.11999893  51.04000092
H    21.63999939  15.18000031  51.69000244
H    20.40999985  14.75000000  55.70000076
H    12.03999996  16.13000107  55.65999985
H    23.19000053  14.56999969  53.04000092
H    22.47999954  13.38000107  54.16999817
