96

S    12.44999981  17.35000038  44.38000107
C     9.77000046  17.53000069  45.05000305
C    11.05000019  17.11000061  45.34000015
C    11.35000038  16.50000000  46.66999817
C    10.34999943  16.23999977  47.52999878
C     9.06999969  16.63999939  47.23999786
C     8.05000019  16.51000023  48.23999786
C     6.76000023  16.92000008  47.88000107
C     6.39999962  17.35999870  46.59999847
C     7.40999985  17.53000069  45.63000107
C     8.78000069  17.22999954  45.93000031
C    12.81999969  16.43000031  46.81000137
C    13.53000069  16.80999947  45.63000107
C    14.88999939  16.72000122  45.48999786
C     5.00000000  17.81999969  46.26999664
H     4.61202812  17.29800224  45.39529800
H     9.72000027  18.07999992  44.10999680
H    10.47999954  15.88000107  48.54999924
H     8.30000019  16.21999931  49.25000000
H     5.97000027  17.10000038  48.59000397
H     7.22000027  17.98999977  44.65999985
H    15.31000042  16.80999947  44.48999786
H     4.38000011  17.67000008  47.15999985
H     5.05000019  18.89000130  46.02000427
S    16.03999901  15.52999973  49.02999878
C    18.61999893  15.22999954  48.33000183
C    17.34000015  15.55999947  47.93000031
C    17.04000092  16.07999992  46.66999817
C    18.02999878  16.28999901  45.77000046
C    19.34000015  15.76000023  46.00999832
C    20.36999893  15.57999992  44.93999863
C    21.68000031  15.14000034  45.26000214
C    21.94000053  14.73999977  46.59000015
C    20.96999931  14.78999996  47.60000229
C    19.63999939  15.29000092  47.32999802
C    15.59999943  16.26000023  46.60999680
C    14.89999962  16.03999901  47.78999710
C    13.50999928  16.11999893  47.97999954
C    23.28000069  14.21000004  46.98999786
H    23.60709572  14.65540695  47.92953110
H    18.81000137  14.75999928  49.29000092
H    17.76000023  16.59000015  44.75999832
H    20.22000122  16.03999901  43.96999741
H    22.40999985  15.14000034  44.45000076
H    21.09999847  14.48999977  48.63999939
H    13.12000084  15.80999947  48.95000076
H    24.04999924  14.50000000  46.26999664
H    23.28000069  13.12999916  47.21000290
S    11.90000057  17.00000000  50.90000153
C     9.26000023  17.31999969  51.65000153
C    10.50000000  16.80999947  51.93000031
C    10.88999939  16.31000137  53.23999786
C     9.86999989  16.31000137  54.15999985
C     8.57999992  16.69999886  53.92000198
C     7.59999990  16.53000069  54.89999771
C     6.32000017  16.98999977  54.68999863
C     5.95000029  17.43999863  53.36000061
C     6.88000011  17.52000046  52.35000229
C     8.26000023  17.27000046  52.65999603
C    12.35000038  16.43000031  53.46000290
C    13.07999992  16.68000031  52.23999786
C    14.42000008  16.87000084  52.18999863
C     4.51000023  17.68000031  53.04000092
H     4.27038431  17.44038391  52.00401306
H     8.94999981  17.70000076  50.68000031
H    10.08999920  15.88000107  55.13999939
H     7.90999985  16.09000015  55.84000015
H     5.71000004  16.92000008  55.58000183
H     6.63000011  17.79000092  51.31999969
H    14.85000038  17.20000076  51.25000000
H     3.81000018  17.15999985  53.69999695
H     4.30999994  18.76000023  53.13000107
S    15.47000027  15.71000004  55.79999924
C    18.15000153  15.53999996  55.08999634
C    16.90000153  16.02000046  54.78000259
C    16.62999916  16.59000015  53.53000259
C    17.63000107  16.77000046  52.57999802
C    18.86999893  16.26000023  52.88999939
C    19.80999947  16.07999992  51.84999847
C    20.96999931  15.42000008  52.11999893
C    21.38999939  15.07999992  53.41999817
C    20.48000145  15.17000008  54.43999863
C    19.19000053  15.73999977  54.19000244
C    15.13000011  16.56999969  53.34000015
C    14.42000008  16.17000008  54.54999924
C    13.02999973  16.23999977  54.68999863
C    22.75000000  14.52000046  53.77999878
H    23.08679199  14.89262009  54.74737930
H    18.25000000  14.80999947  55.87999725
H    17.30999947  16.97999954  51.56000137
H    19.62000084  16.28999901  50.79999924
H    21.67000008  15.15999985  51.32999802
H    20.71000099  14.73999977  55.41999817
H    12.51999950  16.03000069  55.63000107
H    23.52999878  14.80000019  53.06000137
H    22.70999908  13.42000008  53.80000305
