96

S    12.27000046  16.76000023  44.34999847
C     9.63000011  17.10000038  45.06000137
C    10.85999966  16.64999962  45.38999939
C    11.11999989  16.14999962  46.68000031
C    10.06000042  16.18000031  47.58999634
C     8.78999996  16.68000031  47.29999924
C     7.76000023  16.69999886  48.27000046
C     6.48999977  17.02000046  47.90000153
C     6.17999983  17.30999947  46.51000214
C     7.22000027  17.52000046  45.61999893
C     8.52999973  17.13999939  45.97000122
C    12.58999920  15.93999958  46.90999985
C    13.32999992  16.21000099  45.68000031
C    14.72000027  16.17000008  45.70000076
C     4.82999992  17.94000053  46.06999969
H     4.41685534  17.28877258  45.29973221
H     9.39000034  17.51000023  44.09000015
H    10.07999992  15.59000015  48.50000000
H     7.88000011  16.40999985  49.31000137
H     5.73000002  17.11000061  48.68000031
H     7.02000046  17.89999962  44.61999893
H    15.25000000  16.34000015  44.77000427
H     4.07000017  18.12000084  46.84999847
H     5.03000021  18.93000031  45.65000153
S    15.78999996  15.10000038  49.36999893
C    18.46999931  14.81999969  48.62999725
C    17.23999977  15.26000023  48.29999924
C    16.88999939  15.73999977  46.98999786
C    17.82999992  15.86999989  46.04999924
C    19.13999939  15.40999985  46.32999802
C    20.09000015  15.53999996  45.34999847
C    21.40999985  15.07999992  45.59999847
C    21.77000046  14.47000027  46.84999847
C    20.78000069  14.42000008  47.84000015
C    19.48999977  14.82999992  47.57999802
C    15.44999981  15.88999939  46.83000183
C    14.70999908  15.69000053  48.04000092
C    13.30000019  15.57000065  48.02999878
C    23.19000053  14.27000046  47.15000153
H    23.49507904  14.80211449  48.05104828
H    18.73999977  14.50000000  49.62999725
H    17.57999992  16.22999954  45.06000137
H    19.85000038  16.13000107  44.47000122
H    22.20000076  15.36999893  44.91000366
H    21.04000092  14.07999992  48.83999634
H    12.69000053  15.26999950  48.88000107
H    23.75999832  14.57999992  46.25999832
H    23.32999992  13.19000053  47.25999832
S    16.35000038  12.75000000  52.22000122
C    19.01000023  12.36999989  51.65000153
C    17.71000099  12.27000046  51.18999863
C    17.17000008  11.84000015  49.97000122
C    18.11000061  11.51999950  49.02999878
C    19.52000046  11.68000031  49.31999969
C    20.45999908  11.28000069  48.39000320
C    21.77000046  11.05000019  48.81000137
C    22.23999977  11.28999901  50.14999771
C    21.32999802  11.84999943  51.00000000
C    19.95000076  12.00000000  50.66999817
C    15.75000000  11.90000057  49.78000259
C    15.21999931  12.43000031  50.93000031
C    13.88000011  12.79000092  50.97999954
C    23.65999985  10.92000008  50.58000183
H    23.97187042  11.43741989  51.48725891
H    19.44000053  12.64999962  52.61000061
H    17.84000015  11.47999954  47.97999954
H    20.20999908  10.92000008  47.39999771
H    22.36999893  10.64000034  48.00000000
H    21.57999992  12.02999973  52.04000092
H    13.48000050  13.23999977  51.88999939
H    23.71000099   9.84000015  50.72000122
H    24.25000000  11.18000031  49.69999695
S    12.41000080  11.82000065  47.37999725
C     9.75000000  12.57999992  48.06000137
C    11.06999969  12.48000050  48.40999985
C    11.57999992  12.76000023  49.72999954
C    10.72000027  13.35000038  50.65000153
C     9.31999969  13.48000050  50.31999969
C     8.47999954  13.94000053  51.31000137
C     7.09999990  14.04999924  51.17000198
C     6.57000017  13.83999920  49.86999893
C     7.36999989  13.28999996  48.85000229
C     8.80999947  13.03999996  49.03999710
C    13.02999973  12.51000023  49.93000031
C    13.61999989  12.05999947  48.73000336
C    14.98000050  11.78999996  48.60000229
C     5.12000036  14.18000031  49.59000015
H     4.79087973  13.77774239  48.63189316
H     9.44000053  12.35000038  47.04000092
H    11.07999992  13.73999977  51.59999847
H     9.02999973  14.32000065  52.15999985
H     6.51999998  14.52000046  51.95999908
H     6.94000006  13.09000015  47.87000275
H    15.47999954  11.54000092  47.67000198
H     5.00999975  15.26999950  49.54999924
H     4.51999998  13.71999931  50.38999939
