96

S    12.88000011  16.77000046  44.29999924
C    10.19000053  17.13000107  45.00999832
C    11.46000004  16.84000015  45.34000015
C    11.79999924  16.57999992  46.75000000
C    10.77000046  16.45000076  47.71999741
C     9.46000004  16.70999908  47.36000061
C     8.38999939  16.38000107  48.25000000
C     7.05999947  16.65999985  47.88000107
C     6.74000025  17.20000076  46.58000183
C     7.82999992  17.34000015  45.65999985
C     9.18000031  17.02999878  45.98999786
C    13.23999977  16.39000130  46.88000107
C    13.89999962  16.46000099  45.66999817
C    15.24000072  16.26000023  45.61999893
C     5.29999971  17.56999969  46.19999695
H     4.92872477  16.92026901  45.40746689
H     9.89000034  17.45000076  44.01000214
H    11.10999966  15.92000008  48.61000061
H     8.61999989  15.98000050  49.22999954
H     6.26999950  16.31000137  48.54000092
H     7.64999962  17.70000076  44.65000153
H    15.82999992  16.21999931  44.71000290
H     4.63000011  17.53999901  47.06999969
H     5.23000002  18.60999870  45.84999847
S    16.28000069  15.60999966  49.45000076
C    18.96000099  14.88000011  48.74000168
C    17.68000031  15.39000034  48.39000320
C    17.30999947  15.78999996  47.04999924
C    18.27000046  15.65999985  46.07999802
C    19.60000038  15.27999973  46.38000107
C    20.59000015  15.36000061  45.38999939
C    21.87999916  14.98000050  45.65999985
C    22.14999962  14.51000023  46.97000122
C    21.18000031  14.27999973  47.88999939
C    19.89999962  14.78999996  47.68000031
C    15.95000076  16.05999947  46.81999969
C    15.26000023  15.98999977  48.04999924
C    13.88000011  16.02000046  48.06000137
C    23.57000160  14.19000053  47.31999969
H    23.75356483  14.38090897  48.37733459
H    19.22000122  14.75999928  49.79000092
H    17.95999908  15.84000015  45.05000305
H    20.42000008  15.92000008  44.47000122
H    22.60000038  15.14000034  44.86999893
H    21.42999840  14.04000092  48.93000031
H    13.30000019  15.88999939  48.96999741
H    24.26000214  14.78999996  46.70999908
H    23.81999969  13.15999985  47.05999756
S    11.90999985  17.15999985  50.93000031
C     9.21000004  17.46999931  51.63999939
C    10.46000004  17.02000046  51.98999786
C    10.82999992  16.62999916  53.34999847
C     9.82999992  16.46000099  54.26000214
C     8.52000046  16.76000023  53.92000198
C     7.42000008  16.75000000  54.86999893
C     6.12999964  17.06999969  54.47999954
C     5.92999983  17.60000038  53.22999954
C     6.94000006  17.86999893  52.42000198
C     8.22000027  17.32999992  52.68000031
C    12.25000000  16.69000053  53.54000092
C    12.94000053  16.84999847  52.30999756
C    14.34999943  16.77999878  52.25999832
C     4.57999992  17.97999954  52.67000198
H     4.24770784  17.31541634  51.87250137
H     9.00000000  17.86000061  50.65000153
H    10.01000023  16.20000076  55.30000305
H     7.62000036  16.50000000  55.90999985
H     5.25000000  17.06999969  55.11000061
H     6.80999994  18.38000107  51.45999908
H    14.92000008  16.82999992  51.33999634
H     3.86000013  17.92000008  53.50000000
H     4.51000023  19.01000023  52.30999756
S    15.34999943  15.78999996  56.00999832
C    18.11000061  15.59000015  55.37000275
C    16.79999924  15.78999996  54.94999695
C    16.46000099  16.31999969  53.68999863
C    17.50000000  16.35000038  52.78999710
C    18.86999893  16.09000015  53.13000107
C    19.89999962  16.17000008  52.22000122
C    21.14999962  15.77000046  52.50999832
C    21.42999840  15.29999924  53.81000137
C    20.45000076  15.31000042  54.79999924
C    19.18000031  15.65999985  54.45999908
C    14.94999981  16.50000000  53.47000122
C    14.29999924  16.31999969  54.65000153
C    12.94000053  16.38000107  54.75999832
C    22.79999924  14.73999977  54.12000275
H    23.21267509  15.17401886  55.03073120
H    18.26000023  15.31999969  56.40999603
H    17.26000023  16.39999962  51.72999954
H    19.51000023  16.34000015  51.22000122
H    21.96000099  15.67999935  51.77999878
H    20.66999817  14.98999977  55.81999969
H    12.50000000  15.93000031  55.63999939
H    23.40999985  14.98000050  53.25000000
H    22.63999939  13.64999962  54.08000183
