96

S    12.25999928  17.27000046  44.36000061
C     9.59000015  17.53999901  44.95999908
C    10.80999947  17.02000046  45.30000305
C    11.09000015  16.31000137  46.51000214
C    10.14000034  16.31000137  47.45999908
C     8.84000015  16.90000153  47.25999832
C     7.73999977  16.63999939  48.13000107
C     6.44999981  17.13999939  47.80000305
C     6.17000008  17.71000099  46.56000137
C     7.17999983  17.84000015  45.63000107
C     8.51000023  17.46000099  45.93000031
C    12.51000023  16.02000046  46.63999939
C    13.27999973  16.40999985  45.48999786
C    14.68000031  16.34000015  45.41999817
C     4.76999998  18.04999924  46.16000366
H     4.49911928  17.47259521  45.27607727
H     9.36999989  18.00000000  44.00000000
H    10.29999924  15.69000053  48.33000183
H     7.81000042  16.02000046  49.02000046
H     5.64000034  16.87999916  48.47000122
H     7.07999992  18.25000000  44.62999725
H    15.31000042  16.77999878  44.65000153
H     4.09000015  17.79000092  46.97999954
H     4.63000011  19.11000061  45.93000031
S    15.60999966  15.13000011  49.09999847
C    18.29000092  14.78000069  48.53000259
C    17.05000114  15.14999962  48.09999847
C    16.76000023  15.59000015  46.73999786
C    17.86000061  15.75000000  45.90999985
C    19.12999916  15.29000092  46.32999802
C    20.23999977  15.36000061  45.45999908
C    21.42999840  14.75999928  45.79999924
C    21.63999939  14.27000046  47.09999847
C    20.62000084  14.22999954  47.98999786
C    19.34999847  14.78000069  47.62000275
C    15.31000042  15.81999969  46.59000015
C    14.55000019  15.48999977  47.77000046
C    13.22000027  15.57999992  47.77999878
C    23.02000046  13.85000038  47.49000168
H    23.44675827  14.60394287  48.15147781
H    18.42000008  14.51000023  49.58000183
H    17.71000099  16.04999924  44.87999725
H    19.97999954  15.80999947  44.51000214
H    22.29999924  14.93999958  45.18000031
H    20.81000137  13.81999969  48.97999573
H    12.63000011  15.39000034  48.67000198
H    23.68999863  13.73000050  46.63000107
H    22.98999977  12.89000034  48.01000214
S    11.79999924  16.69999886  50.86999893
C     9.10000038  17.01000023  51.56000137
C    10.40999985  16.77999878  51.95000076
C    10.73999977  16.46000099  53.30999756
C     9.71000004  16.48999977  54.22999954
C     8.36999989  16.72999954  53.92000198
C     7.26000023  16.61999893  54.79000092
C     5.98999977  16.81999969  54.40000153
C     5.73000002  17.38999939  53.11000061
C     6.76999998  17.47999954  52.19999695
C     8.07999992  16.97000122  52.56999969
C    12.20000076  16.29999924  53.44999695
C    12.86999893  16.48999977  52.28000259
C    14.26000023  16.60000038  52.21000290
C     4.33999968  17.79000092  52.70000076
H     3.97533178  17.29662704  51.79905701
H     8.89999962  17.29999924  50.52999878
H     9.81999969  16.17000008  55.26000214
H     7.55999994  16.45000076  55.81999969
H     5.26000023  16.81999969  55.20999908
H     6.63999987  18.04000092  51.27999878
H    14.85000038  16.76000023  51.31000137
H     3.86000013  17.53999901  53.66000366
H     4.30000019  18.89000130  52.65999603
S    15.29999924  15.70000076  55.90999985
C    17.90999985  15.17000008  55.21999741
C    16.69999886  15.59000015  54.81999969
C    16.45000076  16.06999969  53.46000290
C    17.39999962  16.03000069  52.48000336
C    18.63000107  15.52000046  52.88000107
C    19.70000076  15.60999966  52.01000214
C    20.93000031  15.08999920  52.31999969
C    21.17000198  14.46000004  53.55999756
C    20.17999840  14.47000027  54.47000122
C    18.89999962  15.06999969  54.20000076
C    14.98000050  16.35000038  53.37999725
C    14.34999943  16.03999901  54.54000092
C    12.96000004  16.10000038  54.61999893
C    22.49000168  13.96000004  53.92000198
H    22.83985901  14.60761070  54.72393036
H    18.06999969  14.73999977  56.20999908
H    17.17000008  16.28999901  51.45000076
H    19.54000092  16.23999977  51.13999939
H    21.78999901  15.21000004  51.66999817
H    20.31999969  14.02999973  55.45000076
H    12.44999981  16.21999931  55.56999969
H    23.08000183  14.04000092  53.00000000
H    22.50000000  12.93000031  54.27999878
