96

S    12.72999954  16.61000061  44.22000122
C    10.03000069  16.92000008  44.86999893
C    11.28000069  16.46000099  45.20999908
C    11.59000015  16.05999947  46.52000046
C    10.57999992  15.90000057  47.41000366
C     9.25000000  16.26000023  47.06999969
C     8.19999981  16.15999985  48.02999878
C     6.93000031  16.61999893  47.75000000
C     6.56000042  17.07999992  46.44000244
C     7.59000015  17.15999985  45.48999786
C     8.97000027  16.80999947  45.77000046
C    13.03999996  16.02000046  46.70000076
C    13.71999931  16.38000107  45.56000137
C    15.11999989  16.40999985  45.50000000
C     5.09999990  17.39999962  46.13999939
H     4.73528862  16.99807358  45.19472504
H     9.76000023  17.36999893  43.92000198
H    10.70000076  15.32999992  48.33000183
H     8.36000061  15.62000084  48.95999908
H     6.28000021  16.77999878  48.60000229
H     7.36000013  17.56000137  44.50000000
H    15.69000053  16.48999977  44.58000183
H     4.42000008  17.18000031  46.97000122
H     5.09000015  18.50000000  46.14999771
S    16.17000008  15.27999973  49.09999847
C    18.78000069  14.84000015  48.33000183
C    17.57999992  15.34000015  48.04000092
C    17.27000046  15.90000057  46.79999924
C    18.25000000  16.02000046  45.79999924
C    19.52999878  15.62000084  46.06999969
C    20.58000183  15.67000008  45.14999771
C    21.81999969  15.19999981  45.47999954
C    22.04000092  14.47999954  46.66999817
C    21.04999924  14.47000027  47.60000229
C    19.78999901  15.00000000  47.36000061
C    15.81999969  16.15999985  46.68000031
C    15.14000034  15.77999973  47.83000183
C    13.73000050  15.67000008  47.81000137
C    23.45000076  14.04999924  47.09000015
H    23.66559410  14.31589890  48.12485123
H    18.97999954  14.32999992  49.27999878
H    17.93000031  16.46000099  44.86000061
H    20.38000107  15.95999908  44.13000107
H    22.63000107  15.36000061  44.77000427
H    21.21999931  14.17000008  48.62999725
H    13.25000000  15.51000023  48.76999664
H    24.21999931  14.51000023  46.45999908
H    23.52999878  12.96000004  47.22999954
S    16.01000023  12.41000080  52.11999893
C    18.73999977  11.90999985  51.36000061
C    17.35000038  11.84999943  51.09000397
C    16.94000053  11.51000023  49.75999832
C    17.89999962  11.10000038  48.86000061
C    19.27000046  11.00999928  49.20999908
C    20.25000000  10.55999947  48.29999924
C    21.60000038  10.47999954  48.67000198
C    22.03000069  10.98999977  49.95999908
C    21.04000092  11.43000031  50.80999756
C    19.64999962  11.46000004  50.45000076
C    15.46000004  11.72000027  49.61999893
C    14.86999989  12.28000069  50.79999924
C    13.55999947  12.64000034  50.84000015
C    23.45000076  10.69000053  50.40000153
H    23.60986137  11.10418224  51.39548874
H    19.10000038  12.25000000  52.31999969
H    17.52000046  10.86999989  47.87000275
H    19.85999870  10.27999973  47.31999969
H    22.32999992   9.94000053  48.06000137
H    21.19999886  11.78999996  51.83000183
H    13.07999992  13.01000023  51.73999786
H    23.64999962   9.61999989  50.28999710
H    23.98999977  11.23999977  49.61999893
S    12.11999989  12.05999947  47.19999695
C     9.44999981  12.35999966  48.13999939
C    10.77000046  12.41000080  48.40999985
C    11.23999977  12.64000034  49.73999786
C    10.31000042  13.02000046  50.77999878
C     8.98999977  13.27000046  50.43000031
C     8.06999969  13.80000019  51.47999573
C     6.74000025  13.86000061  51.16000366
C     6.24000025  13.45999908  49.86000061
C     7.16000032  12.93000031  48.92000198
C     8.55000019  12.82999992  49.18000031
C    12.71999931  12.48000050  49.73999786
C    13.32999992  12.05999947  48.54000092
C    14.67000008  11.63000011  48.47999954
C     4.74000025  13.57999992  49.50000000
H     4.48807764  12.97983170  48.62568283
H     9.04999924  12.10999966  47.15999985
H    10.76000023  13.27000046  51.72999954
H     8.38999939  14.09000015  52.48000336
H     6.07999992  14.28999996  51.90000153
H     6.84000015  12.71999931  47.90999985
H    15.00000000  11.18000031  47.54000092
H     4.53000021  14.60999966  49.20000076
H     4.07999992  13.43000031  50.37000275
