96

S    12.22000027  17.13000107  44.48999786
C     9.64999962  17.05999947  44.99000168
C    10.86999989  16.81999969  45.47999954
C    11.18999958  16.39999962  46.83000183
C    10.06999969  16.20000076  47.65999603
C     8.75000000  16.44000053  47.19999695
C     7.72000027  16.61000061  48.13999939
C     6.48000002  17.00000000  47.75000000
C     6.25000000  17.34000015  46.42000198
C     7.28999996  17.38999939  45.54000092
C     8.52999973  16.87000084  45.84000015
C    12.63000011  16.28999901  47.02000046
C    13.36999989  16.65999985  45.83000183
C    14.80000019  16.63999939  45.80999756
C     4.88000011  17.75000000  45.97999954
H     4.49932289  17.06917381  45.21864319
H     9.50000000  17.79000092  44.20000076
H    10.40999985  16.04999924  48.68000031
H     8.00000000  16.54999924  49.19000244
H     5.84000015  17.40999985  48.52000427
H     7.17000008  17.86000061  44.55999756
H    15.29000092  16.72999954  44.84000397
H     4.18000031  17.64000130  46.81000137
H     4.81999969  18.78999901  45.63000107
S    15.85999966  15.46000004  49.45999908
C    18.47999954  15.19000053  48.81000137
C    17.22999954  15.59999943  48.47000122
C    16.87999916  16.03999901  47.16999817
C    17.94000053  16.18999863  46.23000336
C    19.26000023  15.81999969  46.52999878
C    20.23999977  15.78999996  45.56999969
C    21.48999977  15.26000023  45.75000000
C    21.84000015  14.86999989  47.05999756
C    20.81999969  14.75999928  48.02999878
C    19.51000023  15.22999954  47.83000183
C    15.50000000  16.28000069  47.00000000
C    14.70999908  15.90999985  48.11999893
C    13.31999969  15.82999992  48.11999893
C    23.23999786  14.46000004  47.35000229
H    23.64071274  14.97520256  48.22298050
H    18.63999939  14.52999973  49.65000153
H    17.70000076  16.36999893  45.19000244
H    19.85000038  16.09000015  44.59999847
H    22.11999893  15.15999985  44.87999725
H    21.07000160  14.37999916  49.02000046
H    12.84000015  15.47000027  49.02000046
H    23.88999939  14.77000046  46.52000046
H    23.25000000  13.36999989  47.43000031
S    11.87999916  16.79000092  51.11000061
C     9.23999977  17.23999977  51.83000183
C    10.43000031  16.62999916  52.09999847
C    10.77999973  16.17000008  53.40999985
C     9.76000023  16.03999901  54.36999893
C     8.43000031  16.50000000  54.06999969
C     7.36000013  16.39000130  55.05000305
C     6.10000038  16.95000076  54.75999832
C     5.91000032  17.46000099  53.40000153
C     6.96000004  17.61999893  52.44999695
C     8.22000027  17.13000107  52.77999878
C    12.23000050  15.90000057  53.52000427
C    12.90999985  16.25000000  52.36000061
C    14.32999992  16.32999992  52.35000229
C     4.55999994  17.94999886  53.04999924
H     4.19111443  17.41086006  52.17744446
H     9.21000004  17.97000122  51.04000092
H     9.96000004  15.59999943  55.34000015
H     7.62000036  16.02000046  56.04000092
H     5.32999992  17.00000000  55.52000046
H     6.76999998  18.19000053  51.53999710
H    14.85999966  16.68000031  51.46999741
H     3.79999995  17.86999893  53.85000229
H     4.74000025  19.03000069  52.94000244
S    15.43000031  15.29000092  56.00999832
C    18.09000015  15.19000053  55.37000275
C    16.77000046  15.52000046  54.94999695
C    16.46000099  15.84000015  53.66000366
C    17.50000000  15.90000057  52.76000214
C    18.85000038  15.59000015  53.08000183
C    19.93000031  15.62000084  52.16999817
C    21.11999893  15.01999950  52.37999725
C    21.37000084  14.51000023  53.69999695
C    20.36000061  14.60000038  54.68999863
C    19.10000038  15.11000061  54.41999817
C    15.00000000  15.93000031  53.47999954
C    14.32999992  15.50000000  54.61999893
C    12.88000011  15.44000053  54.65000153
C    22.75000000  14.15999985  54.13999939
H    23.03673744  14.69671535  55.04433060
H    18.23999977  14.78999996  56.37000275
H    17.25000000  16.09000015  51.72000122
H    19.72999954  16.22999954  51.29000092
H    21.93000031  15.10000038  51.66999817
H    20.58000183  14.42000008  55.73999786
H    12.35000038  15.07999992  55.52000046
H    23.42000008  14.40999985  53.29999924
H    22.82999992  13.09000015  54.36000061
