96

S    12.35999966  16.64999962  44.27000046
C     9.68999958  17.20999908  44.89999771
C    10.93000031  16.75000000  45.27000046
C    11.28999901  16.50000000  46.65000153
C    10.26999950  16.54999924  47.56999969
C     8.94999981  16.90999985  47.15000153
C     7.82999992  16.94000053  48.04999924
C     6.58999968  17.40999985  47.65999603
C     6.32999992  17.79000092  46.33999634
C     7.36000013  17.75000000  45.38999939
C     8.69999981  17.35000038  45.77999878
C    12.69999981  16.20000076  46.81999969
C    13.40999985  16.39999962  45.65999985
C    14.80000019  16.36000061  45.58000183
C     4.86999989  18.12999916  45.86999893
H     4.51127291  17.40564728  45.13874817
H     9.44999981  17.40999985  43.86000061
H    10.59999943  16.28999901  48.56999969
H     7.96999979  16.77000046  49.12000275
H     5.79999971  17.43999863  48.40000153
H     7.14999962  17.98999977  44.36000061
H    15.34999943  16.51000023  44.65000153
H     4.18000031  18.25000000  46.70999908
H     4.99000025  19.11000061  45.38000107
S    15.93000031  15.44000053  49.29999924
C    18.59000015  14.93999958  48.47999954
C    17.32999992  15.36999893  48.15000153
C    16.97000122  15.85000038  46.86999893
C    17.98999977  16.03000069  45.93000031
C    19.36000061  15.69000053  46.23000336
C    20.45999908  15.85999966  45.34000015
C    21.73000145  15.40999985  45.73999786
C    21.94999886  14.78999996  47.00000000
C    20.88000107  14.73000050  47.84999847
C    19.62000084  15.10000038  47.52999878
C    15.52000046  16.10000038  46.72999954
C    14.85000038  15.88999939  47.97000122
C    13.45999908  16.02000046  47.97000122
C    23.19999886  14.09999943  47.45999908
H    23.71480370  14.74002552  48.17654800
H    18.82999992  14.34999943  49.36999893
H    17.78000069  16.39999962  44.93000031
H    20.36999893  16.31999969  44.36000061
H    22.47999954  15.46000004  44.94999695
H    20.93000031  14.11999893  48.75000000
H    12.97000027  15.90999985  48.93000031
H    23.81999969  14.04000092  46.56000137
H    23.02000046  13.05999947  47.76000214
S    11.97999954  17.15999985  51.14999771
C     9.30999947  17.61999893  51.77999878
C    10.55999947  17.23999977  52.15000153
C    10.88999939  16.82999992  53.50000000
C     9.85999966  16.72999954  54.38999939
C     8.52000046  17.05999947  54.03999710
C     7.55999994  17.17000008  54.98000336
C     6.30999994  17.60000038  54.68000031
C     5.88000011  17.86000061  53.36999893
C     6.88000011  17.85000038  52.39999771
C     8.22000027  17.47999954  52.72999573
C    12.27000046  16.45000076  53.61000061
C    13.01000023  16.68000031  52.43999863
C    14.40999985  16.57999992  52.22999954
C     4.46999979  18.22000122  52.97000122
H     4.14516115  17.66918564  52.08728790
H     9.02999973  17.86000061  50.76000214
H     9.94000053  16.31000137  55.38999939
H     7.86000013  16.94000053  56.00000000
H     5.63000011  17.70000076  55.52000046
H     6.65000010  18.18000031  51.38999939
H    14.80000019  16.79999924  51.24000168
H     3.72000003  18.05999947  53.75999832
H     4.42000008  19.31999969  52.91999817
S    15.55999947  15.62000084  55.86000061
C    18.18000031  15.24000072  55.00000000
C    16.94000053  15.73999977  54.78000259
C    16.60000038  16.28000069  53.47999954
C    17.53000069  16.31000137  52.49000168
C    18.85000038  15.81999969  52.71999741
C    19.90999985  15.92000008  51.77999878
C    21.24000168  15.51000023  52.06999969
C    21.56999969  15.08999920  53.34999847
C    20.53999901  14.88999939  54.26000214
C    19.19000053  15.26999950  54.00000000
C    15.14999962  16.39000130  53.40999985
C    14.42999935  16.04999924  54.59000015
C    13.02000046  16.02000046  54.73999786
C    23.02999878  14.65000057  53.73000336
H    23.25535774  15.04982853  54.71866608
H    18.45000076  14.80999947  55.96000290
H    17.21999931  16.65999985  51.51000214
H    19.84000015  16.52000046  50.87999725
H    22.01000023  15.67999935  51.31999969
H    20.79999924  14.34000015  55.15999603
H    12.51999950  15.76000023  55.65999985
H    23.71999931  14.98999977  52.95000076
H    23.05999947  13.55999947  53.62999725
