96

S    12.61000061  16.86000061  44.34000015
C     9.88000011  17.02000046  44.97000122
C    11.14999962  16.72999954  45.30000305
C    11.51000023  16.10000038  46.52999878
C    10.48999977  15.85999966  47.49000168
C     9.17000008  16.28999901  47.22999954
C     8.10000038  16.10000038  48.20999908
C     6.84999990  16.67000008  47.94000244
C     6.57000017  17.17000008  46.65999985
C     7.55000019  17.27000046  45.68000031
C     8.89999962  16.87000084  45.97999954
C    12.94999981  15.95000076  46.69000244
C    13.71000099  16.28999901  45.52999878
C    15.11000061  16.13999939  45.47000122
C     5.17000008  17.64000130  46.36000061
H     4.80974388  17.14284706  45.45935822
H     9.67000008  17.22999954  43.92000198
H    10.67000008  15.25000000  48.36999893
H     8.39999962  15.72000027  49.19000244
H     6.02999973  16.54000092  48.63999939
H     7.39000034  17.79000092  44.73999786
H    15.64000034  16.61000061  44.64000320
H     4.56999969  17.17000008  47.15999985
H     4.98000002  18.71999931  46.31000137
S    16.10000038  14.77000046  49.12000275
C    18.73999977  14.21000004  48.41999817
C    17.53999901  14.80000019  48.06000137
C    17.21999931  15.27999973  46.72999954
C    18.22999954  15.31999969  45.80999756
C    19.51000023  14.80999947  46.12999725
C    20.53999901  15.06999969  45.17000198
C    21.87999916  14.78999996  45.59000015
C    22.18000031  14.26000023  46.90000153
C    21.18999863  14.01000023  47.77999878
C    19.82999992  14.23999977  47.49000168
C    15.78999996  15.60999966  46.59000015
C    15.01999950  15.34000015  47.81000137
C    13.61999989  15.52999973  47.83000183
C    23.54000092  13.94999981  47.29999924
H    23.94225883  14.57493687  48.09733200
H    18.93000031  13.85000038  49.43000031
H    18.09999847  15.77999973  44.84000397
H    20.31999969  15.62000084  44.26000214
H    22.63999939  14.94999981  44.84000397
H    21.52000046  13.64999962  48.75999832
H    13.07000065  15.18000031  48.68999863
H    24.23000145  13.99000072  46.44000244
H    23.54000092  12.94000053  47.71999741
S    11.85999966  16.46999931  50.77999878
C     9.22000027  17.00000000  51.73999786
C    10.48999977  16.50000000  51.93000031
C    10.90999985  16.07999992  53.22000122
C     9.98999977  16.03000069  54.22000122
C     8.61999989  16.39999962  53.96999741
C     7.68000031  16.40999985  55.04000092
C     6.46000004  16.79999924  54.86999893
C     6.10000038  17.25000000  53.59000397
C     7.02000046  17.42000008  52.62000275
C     8.27999973  17.01000023  52.75000000
C    12.36999989  15.90000057  53.25000000
C    13.00000000  16.09000015  52.04000092
C    14.35999966  16.18999863  51.93000031
C     4.69000006  17.64999962  53.29000092
H     4.19835806  17.10699272  52.48282623
H     8.94999981  17.27000046  50.72000122
H    10.26000023  15.67000008  55.20999908
H     7.86000013  15.98000050  56.02000427
H     5.82999992  16.86000061  55.75000000
H     6.83000040  17.75000000  51.59999847
H    14.89999962  16.47999954  51.02000427
H     4.09000015  17.77000046  54.20000076
H     4.84000015  18.67000008  52.93000031
S    15.47999954  15.44999981  55.70999908
C    18.15999985  15.19000053  55.06000137
C    16.88999939  15.48999977  54.65999985
C    16.60000038  15.77000046  53.27000046
C    17.60000038  15.72999954  52.32999802
C    18.89999962  15.36999893  52.70000076
C    19.86999893  15.21000004  51.72999954
C    21.18999863  14.82999992  52.02999878
C    21.59000015  14.68999958  53.41999817
C    20.55999947  14.73000050  54.38000107
C    19.19999886  15.17000008  54.06000137
C    15.13000011  15.95000076  53.11000061
C    14.47999954  15.73999977  54.36000061
C    13.15999985  15.71000004  54.40000153
C    23.03999901  14.32999992  53.85000229
H    23.22569466  14.72889805  54.84724808
H    18.30999947  14.73000050  56.03000259
H    17.43000031  15.85999966  51.25999832
H    19.60000038  15.34000015  50.68000031
H    21.87999916  14.63999939  51.20999908
H    20.72999954  14.35999966  55.38999939
H    12.69000053  15.36999893  55.31999969
H    23.82999802  14.80999947  53.25000000
H    23.19000053  13.25000000  53.89999771
