96

S    12.39999962  17.02000046  44.36999893
C     9.77000046  17.28000069  45.12000275
C    10.95000076  16.77999878  45.45000076
C    11.21999931  16.10000038  46.63999939
C    10.11999989  15.97000027  47.49000168
C     8.84000015  16.46999931  47.18000031
C     7.73999977  16.25000000  48.08000183
C     6.57999992  16.65999985  47.69000244
C     6.34000015  17.38000107  46.49000168
C     7.31999969  17.53000069  45.54999924
C     8.67999935  17.09000015  45.93000031
C    12.63000011  15.84000015  46.77000046
C    13.35000038  16.29999924  45.59999847
C    14.73000050  16.36999893  45.58000183
C     4.94999981  17.77000046  46.22000122
H     4.54540682  17.19201088  45.38913727
H     9.71000004  17.84000015  44.19000244
H    10.31000042  15.40999985  48.40999985
H     7.94000053  15.85999966  49.06999969
H     5.71000004  16.42000008  48.29999924
H     7.13999987  18.00000000  44.59000015
H    15.29000092  16.61999893  44.68000031
H     4.32999992  17.61000061  47.09999847
H     4.99000025  18.81999969  45.90000153
S    15.78999996  15.11000061  49.15000153
C    18.46999931  14.81999969  48.52000427
C    17.27000046  15.36000061  48.20000076
C    16.97000122  15.76000023  46.86999893
C    17.98999977  15.78999996  45.91999817
C    19.22999954  15.21000004  46.23000336
C    20.34000015  15.21000004  45.28999710
C    21.53000069  14.73000050  45.65000153
C    21.73000145  14.14000034  46.90999985
C    20.76000023  14.17000008  47.90999985
C    19.48999977  14.73000050  47.54000092
C    15.51000023  15.92000008  46.68000031
C    14.75999928  15.50000000  47.80000305
C    13.35999966  15.50000000  47.95000076
C    23.21000099  13.78000069  47.19999695
H    23.45900917  14.27110004  48.14069748
H    18.67000008  14.30999947  49.45999908
H    17.85000038  16.17000008  44.91000366
H    20.17999840  15.90999985  44.47000122
H    22.37999916  14.93999958  45.00999832
H    20.97999954  13.92000008  48.94000244
H    12.86999893  15.18000031  48.87000275
H    23.80000114  14.32000065  46.45000076
H    23.39999962  12.71000004  47.09999847
S    11.75000000  16.60000038  50.77999878
C     9.11999989  17.22999954  51.62000275
C    10.34000015  16.63999939  51.90999985
C    10.59999943  16.14999962  53.23999786
C     9.64999962  16.23999977  54.20999908
C     8.34999943  16.84999847  53.94000244
C     7.30000019  16.80999947  54.91000366
C     6.05000019  17.21999931  54.54000092
C     5.82000017  17.78000069  53.27999878
C     6.78999996  17.77000046  52.34000397
C     8.11999989  17.28999901  52.63000107
C    12.13000107  15.85999966  53.36000061
C    12.76000023  16.06999969  52.12999725
C    14.17000008  16.18999863  52.18000031
C     4.44000006  18.15999985  52.88999939
H     4.10408497  17.50961113  52.08237457
H     9.04999924  17.59000015  50.59000015
H     9.89999962  15.82999992  55.19000244
H     7.40000010  16.21000099  55.80999756
H     5.26999998  17.07999992  55.27999878
H     6.57999992  18.13999939  51.33999634
H    14.68999958  16.48999977  51.26999664
H     3.82999992  18.05999947  53.80000305
H     4.30000019  19.22000122  52.67000198
S    15.25000000  15.31999969  55.97000122
C    17.95999908  15.10000038  55.28999710
C    16.64999962  15.43000031  54.89999771
C    16.36000061  16.02000046  53.61999893
C    17.43000031  16.14999962  52.71999741
C    18.70000076  15.65999985  53.06000137
C    19.75000000  15.62999916  52.01000214
C    21.01000023  15.18000031  52.38999939
C    21.28999901  14.56999969  53.68000031
C    20.30999947  14.56999969  54.65000153
C    19.04999924  15.14999962  54.38999939
C    14.88000011  16.03000069  53.39000320
C    14.18000031  15.72999954  54.61999893
C    12.81000042  15.67000008  54.65000153
C    22.57999802  13.92000008  54.01000214
H    22.91890335  14.43965435  54.90621567
H    18.05999947  14.53999996  56.22000122
H    17.20999908  16.36999893  51.68000031
H    19.52999878  15.90000057  50.97999954
H    21.80999947  15.22999954  51.66999817
H    20.38999939  14.09000015  55.63000107
H    12.23000050  15.43000031  55.52999878
H    23.29000092  14.09000015  53.18999863
H    22.43000031  12.86000061  54.25000000
