96

S    11.98999977  17.02000046  44.15000153
C     9.35000038  17.17000008  44.86000061
C    10.59000015  16.72000122  45.17000198
C    10.88000107  16.10999870  46.39999771
C     9.88000011  15.93000031  47.39999771
C     8.60999966  16.47999954  47.21000290
C     7.59000015  16.36000061  48.20999908
C     6.28999996  16.76000023  47.84999847
C     6.00000000  17.30999947  46.60999680
C     6.93000031  17.50000000  45.61999893
C     8.30000019  17.02000046  45.89000320
C    12.35000038  15.88999939  46.46999741
C    13.09000015  16.28000069  45.22999573
C    14.47000027  16.21000099  45.19000244
C     4.61999989  17.85000038  46.27999878
H     4.13803291  17.22344398  45.52951050
H     9.10000038  17.54999924  43.87000275
H    10.11999989  15.44999981  48.34000015
H     7.85000038  15.86999989  49.13999939
H     5.38000011  16.63999939  48.43000031
H     6.63000011  17.90999985  44.65999985
H    14.96000099  16.46999931  44.25000000
H     4.01999998  17.79999924  47.18999863
H     4.76000023  18.88000107  45.94999695
S    15.53999996  15.13000011  48.89999771
C    18.25000000  15.07999992  48.27999878
C    16.97000122  15.29000092  47.87000275
C    16.64999962  15.59000015  46.47999573
C    17.64000130  15.53999996  45.56999969
C    18.92000008  15.34999943  45.97999954
C    19.95000076  15.34999943  45.01999664
C    21.18999863  14.85999966  45.34000015
C    21.48999977  14.53999996  46.73999786
C    20.52999878  14.73000050  47.70000076
C    19.22000122  15.13000011  47.37999725
C    15.21000004  15.72000027  46.29000092
C    14.51000023  15.39000034  47.49000168
C    13.12000084  15.46000004  47.56999969
C    22.89999962  14.19999981  47.22999954
H    23.15380096  14.70760250  48.16060257
H    18.42000008  14.73000050  49.29999924
H    17.51000023  15.53999996  44.48999786
H    19.75000000  15.65999985  44.00000000
H    22.03000069  14.75000000  44.66999817
H    20.68000031  14.52000046  48.75999832
H    12.56999969  15.10000038  48.43000031
H    23.52999878  14.47000027  46.37000275
H    22.90999985  13.10999966  47.34000397
S    15.85999966  12.97999954  52.18000031
C    18.54999924  12.43999958  51.52000046
C    17.15999985  12.38999939  51.18999863
C    16.69999886  11.92000008  49.92000198
C    17.65999985  11.39000034  49.03999710
C    19.01000023  11.46999931  49.33000183
C    19.90999985  10.98999977  48.29999924
C    21.30000114  10.92000008  48.61999893
C    21.78999901  11.44000053  49.91000366
C    20.85000038  12.03999996  50.79000092
C    19.45999908  12.02000046  50.54999924
C    15.22999954  12.00000000  49.75000000
C    14.70000076  12.60000038  50.86999893
C    13.36999989  12.88000011  50.91999817
C    23.19999886  11.21999931  50.35999680
H    23.35956764  11.32154369  51.43346024
H    19.04000092  12.79000092  52.42000198
H    17.40999985  10.90999985  48.09999847
H    19.69000053  10.47999954  47.36999893
H    21.98999786  10.50000000  47.88999939
H    21.17000198  12.39999962  51.77000046
H    13.02000046  13.19000053  51.90000153
H    23.47999954  10.19999981  50.06000137
H    23.85999870  11.89000034  49.79999924
S    11.92000008  12.15000057  47.36000061
C     9.30999947  12.42000008  48.23999786
C    10.62999916  12.39999962  48.54000092
C    11.13000011  12.64999962  49.79000092
C    10.21999931  13.07000065  50.72000122
C     8.80999947  13.15000057  50.50000000
C     7.90000010  13.53999996  51.55000305
C     6.54999971  13.68999958  51.30000305
C     6.12999964  13.40000057  49.93999863
C     6.96000004  13.02999973  48.93000031
C     8.34000015  12.88000011  49.18000031
C    12.57999992  12.60000038  49.86999893
C    13.17000008  12.13999939  48.66000366
C    14.50000000  11.77000046  48.57999802
C     4.67999983  13.64999962  49.56999969
H     4.36379528  13.32660961  48.57826614
H     8.93999958  12.09000015  47.27000427
H    10.69000053  13.30000019  51.66999817
H     8.39999962  14.00000000  52.39999771
H     5.92000008  14.30999947  51.93999863
H     6.53999996  12.76000023  47.95999908
H    15.01000023  11.46000004  47.68000031
H     4.53000021  14.73000050  49.51000214
H     4.09000015  13.35999966  50.45000076
