96

S    12.35999966  16.36000061  44.06999969
C     9.77000046  16.69999886  44.85000229
C    11.00999928  16.28000069  45.21999741
C    11.32999992  15.84000015  46.59000015
C    10.31000042  15.67000008  47.49000168
C     8.97000027  16.01000023  47.12999725
C     7.95000029  15.95000076  48.06000137
C     6.67000008  16.40999985  47.71999741
C     6.38000011  16.86000061  46.37000275
C     7.36999989  17.02000046  45.45000076
C     8.67999935  16.56999969  45.86000061
C    12.79999924  15.85000038  46.70999908
C    13.45000076  16.05999947  45.45000076
C    14.85000038  16.13000107  45.34000015
C     5.03999996  17.42000008  45.94999695
H     4.64447689  16.83031273  45.12299728
H     9.55999947  17.10000038  43.86000061
H    10.51000023  15.32999992  48.50000000
H     8.13000011  15.54999924  49.05000305
H     5.82000017  16.36000061  48.40999985
H     7.20000029  17.30999947  44.41999817
H    15.38000011  16.18000031  44.38999939
H     4.38000011  17.40999985  46.81999969
H     5.27999973  18.45000076  45.65000153
S    16.11999893  15.47000027  49.00000000
C    18.70000076  14.84000015  48.11999893
C    17.46999931  15.38000011  47.85999680
C    17.07999992  15.77999973  46.51000214
C    18.07999992  15.73999977  45.47999954
C    19.37000084  15.24000072  45.77000046
C    20.40999985  15.03999901  44.79000092
C    21.67000008  14.55999947  45.14999771
C    21.93000031  14.19999981  46.52000046
C    20.93000031  14.23999977  47.47000122
C    19.64999962  14.75000000  47.11000061
C    15.62000084  15.93000031  46.49000168
C    14.98000050  15.81999969  47.71999741
C    13.59000015  15.86999989  47.84000015
C    23.38000107  13.86999989  47.00000000
H    23.63980103  14.51578903  47.83878326
H    18.97999954  14.42000008  49.08000183
H    17.71999931  15.97000027  44.47999954
H    20.20999908  15.51000023  43.82999802
H    22.37999916  14.61999989  44.33000183
H    21.09999847  14.15999985  48.54000092
H    13.02999973  15.73999977  48.75999832
H    24.04999924  13.89000034  46.12999725
H    23.44000053  12.82999992  47.34000397
S    11.89000034  17.10000038  50.77999878
C     9.22000027  17.26000023  51.59000015
C    10.48999977  16.93000031  51.90000153
C    10.84000015  16.57999992  53.23999786
C     9.85999966  16.36000061  54.20000076
C     8.53999996  16.73999977  53.88000107
C     7.50999975  16.72000122  54.86999893
C     6.17000008  16.97000122  54.56999969
C     5.80999947  17.46000099  53.26000214
C     6.83000040  17.64000130  52.34000397
C     8.19000053  17.17000008  52.55000305
C    12.28999996  16.60000038  53.43000031
C    13.02999973  16.84000015  52.23999786
C    14.40999985  16.80999947  52.12999725
C     4.33999968  17.53999901  52.90000153
H     4.19313335  17.39313316  51.82997131
H     9.09000015  17.85000038  50.68000031
H    10.14999962  15.81999969  55.10000229
H     7.83999968  16.29999924  55.81999969
H     5.36000013  16.73999977  55.26000214
H     6.61999989  17.94000053  51.31000137
H    14.94999981  16.97000122  51.19999695
H     3.81999993  16.75000000  53.46000290
H     3.86000013  18.45000076  53.27999878
S    15.39999962  15.36000061  55.70999908
C    17.97000122  14.73000050  54.97000122
C    16.79000092  15.21999931  54.64000320
C    16.48999977  15.84000015  53.37999725
C    17.51000023  15.93999958  52.45999908
C    18.81000137  15.47000027  52.75000000
C    20.00999832  15.67000008  51.93999863
C    21.21999931  15.19999981  52.25000000
C    21.45000076  14.60000038  53.56999969
C    20.39999962  14.53999996  54.40999985
C    19.07999992  14.85999966  54.06999969
C    15.01000023  16.23999977  53.22999954
C    14.28999996  15.92000008  54.36999893
C    12.93000031  16.10999870  54.54000092
C    22.80999947  14.14000034  53.94000244
H    23.21534348  14.69468021  54.78624344
H    18.17000008  14.42000008  55.98999786
H    17.34000015  16.46999931  51.52999878
H    19.75000000  16.10999870  50.97999954
H    22.01000023  15.26000023  51.51000214
H    20.59999847  14.23999977  55.44000244
H    12.28000069  15.88000107  55.38000107
H    23.54000092  14.29999924  53.13999939
H    22.86000061  13.07999992  54.22000122
