96

S    12.35999966  16.32999992  44.20000076
C     9.80000019  16.87000084  44.94999695
C    10.98000050  16.29999924  45.27000046
C    11.31999969  15.80000019  46.56000137
C    10.26000023  15.85000038  47.52999878
C     8.97000027  16.29999924  47.19999695
C     7.86999989  16.17000008  48.06000137
C     6.60000038  16.68000031  47.70999908
C     6.42000008  17.42000008  46.44000244
C     7.44999981  17.43999863  45.48999786
C     8.73999977  16.86000061  45.90000153
C    12.74000072  15.69000053  46.65000153
C    13.43000031  15.90999985  45.47999954
C    14.86999989  15.86999989  45.34000015
C     5.03999996  18.00000000  46.14999771
H     4.64001846  17.46443176  45.28902054
H     9.77999973  17.46000099  44.02999878
H    10.31999969  15.25000000  48.43999863
H     8.00000000  15.62999916  48.99000168
H     5.84999990  16.73999977  48.50000000
H     7.48000050  17.87999916  44.50000000
H    15.38000011  15.97000027  44.38999939
H     4.42999983  18.02000046  47.04999924
H     5.18000031  19.04000092  45.83000183
S    15.98000050  15.07999992  49.00000000
C    18.56999969  14.56999969  48.25000000
C    17.32999992  14.96000099  47.85999680
C    17.02999878  15.44000053  46.56999969
C    18.09999847  15.67999935  45.70999908
C    19.38999939  15.36999893  46.09000397
C    20.52000046  15.48999977  45.25000000
C    21.77999878  15.01000023  45.58000183
C    21.93000031  14.28999996  46.77999878
C    20.84000015  14.18000031  47.62000275
C    19.56999969  14.68999958  47.34000397
C    15.62000084  15.60999966  46.44000244
C    14.89999962  15.43000031  47.67000198
C    13.50999928  15.46000004  47.81000137
C    23.31000137  13.78999901  47.21000290
H    23.71682358  14.43530464  47.98857498
H    18.81999969  14.18000031  49.23999786
H    17.87999916  16.21999931  44.79000092
H    20.32999992  15.95000076  44.27999878
H    22.52000046  15.34000015  44.85000229
H    20.90999985  13.45000076  48.41999817
H    13.07999992  15.44999981  48.81000137
H    23.97000122  13.85000038  46.33999634
H    23.26999855  12.72999954  47.49000168
S    11.71000004  16.32999992  51.02000427
C     9.17000008  17.20999908  51.76000214
C    10.42000008  16.77999878  52.09999847
C    10.72999954  16.45000076  53.47999954
C     9.76000023  16.54999924  54.45000076
C     8.38000011  16.94000053  54.13000107
C     7.18999958  16.90000153  54.93000031
C     5.97000027  17.32999992  54.50000000
C     5.88999987  17.90999985  53.18999863
C     6.96000004  17.89999962  52.41000366
C     8.19999981  17.35999870  52.78999710
C    12.18000031  16.28999901  53.61999893
C    12.81999969  16.02000046  52.36999893
C    14.21000004  16.10000038  52.19999695
C     4.56999969  18.34000015  52.62000275
H     4.49234200  17.99407005  51.58927536
H     9.04999924  17.51000023  50.72000122
H    10.11000061  16.48999977  55.47999954
H     7.23000002  16.31999969  55.84999847
H     5.05000019  17.02999878  55.00000000
H     6.97000027  18.48999977  51.50000000
H    14.60999966  16.05999947  51.18999863
H     3.74000025  17.87999916  53.15999985
H     4.34999990  19.40999985  52.64999771
S    15.48999977  15.90999985  55.97999954
C    18.09000015  15.39999962  55.19000244
C    16.82999992  15.86999989  54.89999771
C    16.44000053  16.07999992  53.54000092
C    17.35000038  16.03999901  52.52999878
C    18.67000008  15.64000034  52.84000015
C    19.70000076  15.47999954  51.77999878
C    20.95000076  15.06000042  52.12999725
C    21.31000137  14.73000050  53.43999863
C    20.36999893  14.80000019  54.40999985
C    19.04000092  15.29999924  54.15999985
C    14.96999931  16.18000031  53.37999725
C    14.28999996  16.23999977  54.61999893
C    12.92000008  16.35000038  54.79000092
C    22.72000122  14.46000004  53.81000137
H    22.90128326  14.74280357  54.84694672
H    18.34000015  14.96999931  56.16000366
H    17.01000023  16.04999924  51.49000168
H    19.37000084  15.57999992  50.75000000
H    21.76000214  14.94999981  51.42000198
H    20.56999969  14.40999985  55.40000153
H    12.57999992  16.50000000  55.80999756
H    23.42000008  14.86999989  53.06999969
H    22.96999931  13.40999985  53.62999725
