96

S    12.25000000  16.72000122  43.82999802
C     9.52999973  17.20999908  44.64000320
C    10.80999947  16.72000122  44.84000397
C    11.17000008  16.21999931  46.16000366
C    10.15999985  16.10999870  47.11000061
C     8.90999985  16.69000053  46.97999954
C     7.88999987  16.46999931  47.90000153
C     6.57999992  16.98999977  47.75000000
C     6.25000000  17.61000061  46.50000000
C     7.23999977  17.72999954  45.52000046
C     8.59000015  17.27000046  45.72999954
C    12.63000011  16.22999954  46.42000198
C    13.31999969  16.39000130  45.17000198
C    14.65000057  16.29999924  45.15999603
C     4.79999971  17.89999962  46.16000366
H     4.45477962  17.13044548  45.46956253
H     9.27999973  17.92000008  43.86000061
H    10.40999985  15.50000000  47.97999954
H     7.99000025  15.73999977  48.68999863
H     5.72000027  16.62999916  48.29999924
H     6.98999977  18.04999924  44.51000214
H    15.08999920  16.26000023  44.16999817
H     4.19000006  17.88999939  47.06999969
H     4.73000002  18.89999962  45.72000122
S    15.67999935  15.36000061  48.89999771
C    18.37000084  14.77000046  48.16999817
C    17.10000038  15.24000072  47.81000137
C    16.72000122  15.71000004  46.46999741
C    17.73999977  15.67999935  45.51000214
C    18.96000099  15.19000053  45.77999878
C    19.97999954  15.11999989  44.79000092
C    21.25999832  14.72000027  45.07999802
C    21.70999908  14.50000000  46.39999771
C    20.76999855  14.52999973  47.36999893
C    19.36000061  14.78000069  47.12999725
C    15.36999893  16.03000069  46.31000137
C    14.70999908  15.97000027  47.50999832
C    13.35000038  16.06999969  47.60000229
C    23.13999939  14.30999947  46.84999847
H    23.38993645  14.84458542  47.76642990
H    18.60000038  14.42999935  49.16999817
H    17.59000015  15.88999939  44.45000076
H    19.84000015  15.31999969  43.73000336
H    21.97999954  14.50000000  44.31000137
H    21.14000130  14.42000008  48.37999725
H    12.76999950  15.85999966  48.48999786
H    23.69999886  14.81999969  46.05999756
H    23.38000107  13.23999977  46.90000153
S    11.46000004  16.79999924  50.79000092
C     8.85999966  17.35999870  51.58000183
C    10.08999920  16.86000061  51.90000153
C    10.48999977  16.55999947  53.27000046
C     9.59000015  16.56999969  54.22000122
C     8.25000000  17.06999969  53.96999741
C     7.17000008  17.02999878  54.92000198
C     5.91000032  17.40999985  54.58000183
C     5.65000010  17.94999886  53.27000046
C     6.60000038  17.94000053  52.29999924
C     7.90999985  17.47999954  52.65999603
C    11.90999985  16.36000061  53.31999969
C    12.58999920  16.57999992  52.09999847
C    14.04999924  16.50000000  51.98999786
C     4.21000004  18.38999939  52.90000153
H     3.92231154  17.90584183  51.96676636
H     8.65999985  17.80999947  50.61000061
H     9.73999977  16.17000008  55.21999741
H     7.42000008  16.67000008  55.90999985
H     5.00000000  17.42000008  55.19000244
H     6.42000008  18.22999954  51.26999664
H    14.52000046  16.54000092  51.02000427
H     3.58000016  18.27999878  53.79000092
H     4.23000002  19.47999954  52.80000305
S    15.06000042  15.72999954  55.72999954
C    17.85000038  15.26000023  55.04000092
C    16.55999947  15.72000027  54.69999695
C    16.26000023  16.14999962  53.33000183
C    17.28000069  16.09000015  52.43000031
C    18.59000015  15.75000000  52.76000214
C    19.50000000  15.62999916  51.70000076
C    20.76000023  15.21999931  51.95000076
C    21.22999954  14.98000050  53.29000092
C    20.25000000  14.91000080  54.29000092
C    18.89000130  15.34999943  54.09999847
C    14.78999996  16.31999969  53.13000107
C    14.06999969  16.10999870  54.33000183
C    12.69999981  16.10000038  54.43999863
C    22.72000122  14.63999939  53.53000259
H    22.98331451  14.97448063  54.53343964
H    18.06999969  14.86999989  56.03000259
H    17.02000046  16.27000046  51.38999939
H    19.22999954  15.98999977  50.70999908
H    21.47999954  15.11000061  51.13999939
H    20.38000107  14.45000076  55.27000046
H    12.23999977  16.00000000  55.41999817
H    23.38999939  14.94999981  52.71999741
H    22.77000046  13.55000019  53.61000061
