96

S    11.97999954  17.52000046  44.38999939
C     9.23999977  17.71999931  45.04000092
C    10.50000000  17.48999977  45.40000153
C    10.85999966  17.10000038  46.72000122
C     9.84000015  16.90000153  47.62000275
C     8.56000042  17.30999947  47.31999969
C     7.50000000  17.20999908  48.27000046
C     6.21999979  17.64000130  47.95999908
C     5.89999962  18.20999908  46.70000076
C     6.90000010  18.07999992  45.68000031
C     8.22000027  17.67000008  46.00000000
C    12.31999969  16.79000092  46.86000061
C    13.02000046  17.04000092  45.70000076
C    14.45000076  17.10000038  45.68000031
C     4.48000002  18.63999939  46.38000107
H     4.07337952  18.13522911  45.50366211
H     9.04999924  18.12000084  44.05000305
H    10.01999950  16.32999992  48.53000259
H     7.77999973  16.72999954  49.20999908
H     5.46999979  17.71000099  48.74000168
H     6.71000004  18.42000008  44.66999817
H    14.93000031  17.40999985  44.75000000
H     3.84000015  18.48999977  47.25999832
H     4.42999983  19.71999931  46.18000031
S    15.39000034  15.85999966  49.34000015
C    18.02999878  15.38000011  48.61000061
C    16.81999969  15.81999969  48.27000046
C    16.52000046  16.31000137  46.95000076
C    17.51000023  16.45000076  46.07999802
C    18.86000061  16.13000107  46.40999603
C    19.95000076  16.21999931  45.44000244
C    21.14999962  15.69000053  45.68999863
C    21.45999908  15.15999985  46.97000122
C    20.38999939  15.01999950  47.90000153
C    19.09000015  15.52999973  47.69000244
C    15.14000034  16.67000008  46.77999878
C    14.39000034  16.43000031  47.98999786
C    13.01000023  16.46000099  48.04000092
C    22.88999939  14.72000027  47.23999786
H    23.23438072  15.25413990  48.12554550
H    18.19000053  14.75000000  49.47999954
H    17.20000076  16.79000092  45.10000229
H    19.64999962  16.59000015  44.45999908
H    21.84000015  15.73999977  44.86000061
H    20.53999901  14.47000027  48.82999802
H    12.57999992  16.31999969  49.02999878
H    23.46999931  15.11999989  46.40999603
H    22.88000107  13.63000011  47.38999939
S    11.92999935  17.85000038  51.25000000
C     9.21000004  17.88999939  51.90000153
C    10.47000027  17.43999863  52.19999695
C    10.78999996  16.87999916  53.53000259
C     9.72999954  16.73999977  54.47000122
C     8.43999958  17.17000008  54.13000107
C     7.31999969  17.15999985  55.07999802
C     6.05000019  17.65999985  54.75999832
C     5.79999971  18.02999878  53.37999725
C     6.85999966  18.09999847  52.50999832
C     8.14999962  17.72999954  52.84999847
C    12.20999908  16.79999924  53.76999664
C    12.94999981  17.23999977  52.60000229
C    14.32000065  17.35999870  52.50000000
C     4.44000006  18.22999954  52.81999969
H     4.19171619  17.63119698  51.94370651
H     9.04999924  18.22000122  50.87999725
H    10.06000042  16.44000053  55.47000122
H     7.55000019  16.87000084  56.10000229
H     5.25000000  17.65999985  55.48999786
H     6.71999979  18.48999977  51.51000214
H    14.80999947  17.79999924  51.63999939
H     3.71000004  18.01000023  53.61000061
H     4.38000011  19.29000092  52.54000092
S    15.36999893  15.54999924  55.90999985
C    17.97999954  15.39999962  55.20000076
C    16.75000000  15.85999966  54.91000366
C    16.48999977  16.54999924  53.63999939
C    17.40999985  16.62999916  52.64999771
C    18.70000076  16.07999992  52.90000153
C    19.68000031  16.03000069  51.86000061
C    20.95999908  15.60999966  52.19999695
C    21.28000069  15.19000053  53.50999832
C    20.29000092  15.11999989  54.47000122
C    19.00000000  15.59000015  54.23999786
C    15.06999969  16.82999992  53.62999725
C    14.34000015  16.28999901  54.72999954
C    12.96000004  16.32999992  54.85000229
C    22.65999985  14.75999928  53.83999634
H    23.00399590  15.14791012  54.79879379
H    18.18000031  14.78999996  56.07999802
H    17.07999992  16.80999947  51.63000107
H    19.45999908  16.48999977  50.90999985
H    21.73999977  15.77999973  51.46999741
H    20.59000015  14.63999939  55.40999985
H    12.51000023  15.85000038  55.70999908
H    23.36999893  15.03999901  53.04999924
H    22.75000000  13.67000008  53.81999969
