96

S    12.05999947  16.50000000  44.19000244
C     9.52999973  17.26000023  44.92000198
C    10.77999973  16.77999878  45.27000046
C    11.03000069  16.47999954  46.63999939
C    10.06999969  16.46999931  47.54000092
C     8.73000050  16.77000046  47.23999786
C     7.72000027  16.79000092  48.27999878
C     6.47000027  17.15999985  47.94000244
C     6.15000010  17.42000008  46.51000214
C     7.13000011  17.47999954  45.58000183
C     8.48999977  17.23999977  45.90000153
C    12.46000099  16.21000099  46.73999786
C    13.14000034  16.10000038  45.50000000
C    14.50000000  16.07999992  45.41999817
C     4.73000002  17.51000023  46.14999771
H     4.52337694  17.43423843  45.08244705
H     9.30999947  17.61000061  43.92000198
H    10.31999969  16.21000099  48.56999969
H     7.96000004  16.50000000  49.29999924
H     5.68000031  17.11000061  48.68000031
H     7.00000000  17.64999962  44.51000214
H    15.00000000  15.95000076  44.47000122
H     4.21000004  16.79999924  46.81000137
H     4.46000004  18.52000046  46.49000168
S    15.48999977  15.34000015  49.15999985
C    18.17000008  14.81999969  48.43999863
C    16.90999985  15.29000092  48.11000061
C    16.61000061  15.80999947  46.83000183
C    17.56000137  15.93000031  45.86000061
C    18.89000130  15.52999973  46.18999863
C    19.90999985  15.71000004  45.17000198
C    21.22999954  15.29999924  45.38000107
C    21.63000107  14.85000038  46.73999786
C    20.62999916  14.68999958  47.72999573
C    19.27999878  15.00000000  47.51999664
C    15.22999954  16.04999924  46.59999847
C    14.51000023  15.88999939  47.81999969
C    13.12999916  15.92000008  47.88999939
C    23.11000061  14.57999992  47.02000046
H    23.34588051  14.86747932  48.04460526
H    18.38999939  14.37999916  49.40999985
H    17.25000000  16.32999992  44.88999939
H    19.62000084  16.26000023  44.27000046
H    21.94999886  15.34000015  44.56999969
H    20.86999893  14.28999996  48.72000122
H    12.61999989  15.72999954  48.82999802
H    23.78000069  15.21000004  46.43000031
H    23.40999985  13.53000069  46.90999985
S    15.88999939  12.76000023  52.45999908
C    18.61999893  12.43000031  51.73999786
C    17.29999924  12.30000019  51.39999771
C    16.87999916  11.97000027  50.01999664
C    17.86000061  11.65999985  49.08000183
C    19.22999954  11.64999962  49.40000153
C    20.22000122  11.07999992  48.46000290
C    21.60000038  11.13000011  48.81000137
C    21.96000099  11.64000034  50.06999969
C    21.00000000  12.09000015  51.00000000
C    19.63000107  12.18000031  50.70999908
C    15.42000008  12.13000107  49.89999771
C    14.82999992  12.77999973  51.09000397
C    13.47000027  13.12000084  51.09000397
C    23.39999962  11.73999977  50.47000122
H    23.79550552  10.89039516  51.02664185
H    18.98999977  12.69000053  52.72999573
H    17.53000069  11.31999969  48.09999847
H    19.90999985  10.57000065  47.55000305
H    22.29999924  10.67999935  48.11000061
H    21.25000000  12.36999989  52.02000046
H    12.98999977  13.55000019  51.97000122
H    24.11999893  11.84999943  49.65999985
H    23.44000053  12.71000004  50.97999954
S    12.02999973  12.09000015  47.50999832
C     9.55000019  12.84000015  48.15999985
C    10.84000015  12.81999969  48.50000000
C    11.26000023  13.22000027  49.75999832
C    10.38000011  13.73000050  50.72000122
C     8.98999977  13.67000008  50.41999817
C     8.05000019  14.09999943  51.40999603
C     6.76999998  14.15999985  51.02000427
C     6.30999994  13.86999989  49.77000427
C     7.13999987  13.28999996  48.81000137
C     8.53999996  13.23999977  49.10999680
C    12.68000031  12.92000008  49.93999863
C    13.27000046  12.20999908  48.80000305
C    14.63000107  11.90999985  48.70999908
C     4.85000038  14.19000053  49.45000076
H     4.62846804  13.81839848  48.44953156
H     9.26000023  12.64000034  47.12999725
H    10.72999954  13.88000011  51.73999786
H     8.42000008  14.32000065  52.41000366
H     6.11000013  14.60000038  51.77000046
H     6.84000015  12.92000008  47.83000183
H    15.13000011  11.64999962  47.77999878
H     4.63000011  15.26000023  49.54000092
H     4.23999977  13.60999966  50.14999771
