96

S    12.38000011  17.09000015  44.09999847
C     9.77000046  17.78000069  44.88999939
C    10.93999958  17.14999962  45.11000061
C    11.18000031  16.54000092  46.38999939
C    10.24000072  16.68000031  47.43000031
C     8.97000027  17.28000069  47.19999695
C     7.88999987  17.17000008  48.09999847
C     6.61000013  17.43999863  47.70000076
C     6.34000015  17.97000122  46.50000000
C     7.32999992  18.19000053  45.56999969
C     8.69999981  17.82999992  45.86999893
C    12.60000038  16.28000069  46.66999817
C    13.36999989  16.57999992  45.45999908
C    14.75000000  16.65999985  45.51000214
C     4.96000004  18.27999878  46.13999939
H     4.64633894  17.81315613  45.20631027
H     9.52000046  18.20999908  43.92000198
H    10.34000015  16.01000023  48.29000092
H     8.13000011  16.64999962  49.02000046
H     5.88000011  17.31999969  48.48999786
H     7.09000015  18.42000008  44.54000092
H    15.34999943  16.90000153  44.64000320
H     4.30000019  18.06999969  46.98999786
H     4.80999994  19.34999847  45.90999985
S    15.64000034  15.62999916  49.20999908
C    18.37000084  15.11000061  48.39000320
C    17.09000015  15.62999916  48.13999939
C    16.86000061  16.14999962  46.83000183
C    17.82999992  16.18999863  45.83000183
C    19.13999939  15.71000004  46.04999924
C    20.19000053  15.88000107  45.07999802
C    21.42999840  15.55999947  45.50000000
C    21.64999962  14.96999931  46.75000000
C    20.63999939  14.75000000  47.64999771
C    19.31999969  15.18000031  47.36000061
C    15.40999985  16.36999893  46.63999939
C    14.60000038  16.09000015  47.80000305
C    13.26000023  16.01000023  47.88999939
C    23.02000046  14.47999954  47.19999695
H    23.31347275  15.17175770  47.98958206
H    18.59000015  14.65000057  49.34999847
H    17.65999985  16.53000069  44.81999969
H    20.00000000  16.14999962  44.05000305
H    22.22999954  15.69000053  44.78000259
H    20.82999992  14.55999947  48.69999695
H    12.74000072  15.80999947  48.81999969
H    23.68000031  14.47000027  46.31999969
H    22.98999977  13.43000031  47.50999832
S    16.28999901  12.75000000  52.22999954
C    19.00000000  12.38000011  51.31999969
C    17.64000130  12.28999996  51.09000397
C    17.09000015  11.89000034  49.86000061
C    17.97000122  11.46000004  48.93000031
C    19.40999985  11.54000092  49.09000015
C    20.36999893  11.03000069  48.15999985
C    21.71999931  10.90000057  48.47000122
C    22.17000008  11.44999981  49.66999817
C    21.28000069  11.94000053  50.63000107
C    19.89999962  11.96000004  50.34999847
C    15.71000004  12.23000050  49.65999985
C    15.15999985  12.63000011  50.84999847
C    13.92000008  13.15999985  50.97999954
C    23.64000130  11.39999962  50.08999634
H    23.81653976  11.54123020  51.15629196
H    19.38999939  12.98999977  52.12999725
H    17.56999969  11.03000069  48.02000046
H    20.06000137  10.85000038  47.14000320
H    22.43999863  10.42000008  47.81999969
H    21.67000008  12.32999992  51.56999969
H    13.56999969  13.50999928  51.95000076
H    24.07999992  10.43000031  49.82999802
H    24.14999962  12.13999939  49.45999908
S    12.50000000  12.43000031  47.36999893
C     9.82999992  12.94999981  48.18000031
C    11.16000080  13.09000015  48.47999954
C    11.71000004  13.48000050  49.72000122
C    10.85999966  13.81000042  50.75000000
C     9.44999981  13.69999981  50.56000137
C     8.50000000  14.07999992  51.59999847
C     7.13999987  14.15999985  51.31000137
C     6.65999985  13.85000038  50.01999664
C     7.55999994  13.55000019  49.02999878
C     8.94999981  13.35000038  49.25000000
C    13.12000084  13.15000057  49.89999771
C    13.69999981  12.64999962  48.68000031
C    14.98000050  12.25999928  48.54000092
C     5.17000008  14.06999969  49.75999832
H     4.86658192  13.76658058  48.75801468
H     9.48999977  12.81000042  47.15999985
H    11.21999931  13.89000034  51.77000046
H     8.93999958  14.48999977  52.50000000
H     6.50000000  14.60000038  52.05999756
H     7.07999992  13.47000027  48.06000137
H    15.42000008  12.15999985  47.56000137
H     4.82999992  15.07999992  50.02999878
H     4.67000008  13.30999947  50.38000107
