96

S    12.20999908  16.61999893  44.13000107
C     9.46000004  17.00000000  44.86000061
C    10.77999973  16.69999886  45.17000198
C    11.16000080  16.36999893  46.53999710
C    10.24000072  16.34000015  47.61000061
C     8.94999981  16.67000008  47.27000427
C     7.86000013  16.54999924  48.22999954
C     6.57999992  17.04000092  47.94000244
C     6.30999994  17.54999924  46.66999817
C     7.26000023  17.61999893  45.75000000
C     8.63000011  17.20999908  46.00000000
C    12.61000061  16.21999931  46.70000076
C    13.28999996  16.32999992  45.47000122
C    14.63000107  16.10000038  45.40999985
C     4.90999985  17.90999985  46.27999878
H     4.66406250  17.52742958  45.28941727
H     9.22000027  17.38000107  43.87000275
H    10.47000027  16.00000000  48.61000061
H     8.06999969  16.21999931  49.23999786
H     5.73999977  16.97999954  48.62999725
H     7.09000015  17.90999985  44.72000122
H    15.19000053  16.20000076  44.48999786
H     4.19000006  17.56999969  47.02999878
H     4.86000013  19.00000000  46.31000137
S    15.77999973  15.22999954  49.15999985
C    18.47999954  14.84000015  48.36999893
C    17.20999908  15.27999973  48.08000183
C    16.84999847  15.70000076  46.77000046
C    17.86000061  15.78999996  45.80999756
C    19.17000008  15.31000042  46.07999802
C    20.19000053  15.22999954  45.07999802
C    21.44000053  14.85999966  45.34000015
C    21.80000114  14.50000000  46.63000107
C    20.82999992  14.45000076  47.60000229
C    19.48999977  14.88000011  47.37999725
C    15.34999943  15.85000038  46.55000305
C    14.67000008  15.64000034  47.78999710
C    13.26000023  15.80000019  47.84999847
C    23.23999786  14.27000046  47.09000015
H    23.40653801  14.77655792  48.04066467
H    18.53000069  14.28999996  49.31000137
H    17.54999924  15.92000008  44.78000259
H    19.86999893  15.65000057  44.13000107
H    22.11999893  14.98000050  44.50000000
H    21.09999847  14.14000034  48.60000229
H    12.65999985  15.44999981  48.68999863
H    23.95000076  14.68000031  46.36000061
H    23.40999985  13.20000076  47.22999954
S    15.88999939  12.75000000  52.11000061
C    18.45999908  12.31999969  51.18999863
C    17.13000107  12.20999908  51.00999832
C    16.54999924  11.69999981  49.78000259
C    17.43000031  11.28999901  48.79000092
C    18.81999969  11.38000011  48.96999741
C    19.71999931  10.77000046  48.02999878
C    21.04999924  10.71000004  48.27999878
C    21.59000015  11.19999981  49.54000092
C    20.76999855  11.82999992  50.41999817
C    19.31999969  11.92000008  50.14999771
C    15.07999992  11.95000076  49.77000427
C    14.63000107  12.57999992  50.97000122
C    13.35000038  13.12999916  51.03000259
C    23.05999947  10.95999908  49.93000031
H    23.25436783  11.34873295  50.92960358
H    18.89999962  12.69000053  52.11000061
H    17.07999992  10.80999947  47.88000107
H    19.20999908  10.24000072  47.22999954
H    21.71999931  10.14000034  47.64999771
H    21.04999924  12.20999908  51.38999939
H    13.02000046  13.61999989  51.93999863
H    23.18000031   9.88000011  50.04000092
H    23.80000114  11.31000042  49.20000076
S    11.85999966  12.30000019  47.39999771
C     9.22999954  12.75000000  48.20999908
C    10.55999947  12.74000072  48.47999954
C    11.05000019  12.97999954  49.81999969
C    10.14000034  13.35999966  50.73999786
C     8.76999950  13.43999958  50.47000122
C     7.77999973  14.04999924  51.38000107
C     6.44999981  14.15999985  51.06999969
C     6.01000023  13.71000099  49.79000092
C     6.91999960  13.19000053  48.88999939
C     8.30999947  13.03999996  49.20000076
C    12.48000050  12.86000061  49.95999908
C    13.02999973  12.41000080  48.72000122
C    14.34000015  11.90999985  48.61000061
C     4.53999996  13.82999992  49.45000076
H     4.34600401  13.62108135  48.39794540
H     8.96000004  12.58999920  47.15999985
H    10.47999954  13.60999966  51.73999786
H     8.21000004  14.40999985  52.30999756
H     5.82000017  14.46000004  51.90000153
H     6.58999968  13.02000046  47.85999680
H    14.68000031  11.68000031  47.60000229
H     4.21000004  14.80999947  49.79999924
H     4.01999998  13.04999924  50.02999878
