96

S    12.30000019  16.68000031  44.15000153
C     9.70000076  17.10000038  45.06000137
C    10.98000050  16.76000023  45.31000137
C    11.28999901  16.28000069  46.59999847
C    10.31000042  16.23999977  47.62000275
C     9.02999973  16.65999985  47.39999771
C     7.99000025  16.54999924  48.40999985
C     6.65000010  16.90999985  48.06000137
C     6.39999962  17.36999893  46.75000000
C     7.36000013  17.43999863  45.79000092
C     8.71999931  17.13999939  46.06999969
C    12.71999931  16.00000000  46.75000000
C    13.38999939  16.23999977  45.51000214
C    14.80999947  16.34000015  45.45000076
C     4.96000004  17.80999947  46.42000198
H     4.57572174  17.30694389  45.53266525
H     9.32999992  17.17000008  44.03999710
H    10.47999954  15.71000004  48.55999756
H     8.34999943  16.18999863  49.36999893
H     5.84999990  16.95000076  48.80000305
H     7.11000013  17.71999931  44.77000427
H    15.31999969  16.50000000  44.50000000
H     4.33999968  17.51000023  47.27000427
H     4.80999994  18.89000130  46.31000137
S    15.98000050  15.44999981  49.10999680
C    18.61999893  15.07999992  48.40000153
C    17.38000107  15.52000046  48.04000092
C    17.05999947  16.10000038  46.72999954
C    18.04999924  16.21000099  45.79999924
C    19.40999985  15.72000027  46.13999939
C    20.36000061  15.62000084  45.13000107
C    21.63999939  15.19000053  45.47000122
C    21.96000099  14.81999969  46.84000015
C    20.95999908  14.73000050  47.80000305
C    19.63999939  15.19999981  47.48000336
C    15.57999992  16.13999939  46.60999680
C    14.91000080  15.76000023  47.78999710
C    13.50999928  15.72999954  47.84999847
C    23.34000015  14.40000057  47.28000259
H    23.47731400  14.62656784  48.33731461
H    18.78999901  14.52000046  49.31000137
H    17.86000061  16.46000099  44.75999832
H    20.05000114  15.88999939  44.13000107
H    22.43000031  15.27999973  44.72000122
H    21.04000092  14.32999992  48.81000137
H    13.12000084  15.54999924  48.85000229
H    24.13000107  14.85999966  46.66999817
H    23.46999931  13.30999947  47.30999756
S    11.46000004  17.15999985  50.90999985
C     8.86999989  17.59000015  51.83000183
C    10.06000042  17.07999992  52.02000046
C    10.34999943  16.51000023  53.27999878
C     9.36999989  16.52000046  54.29999924
C     8.05999947  16.98999977  54.01000214
C     7.00000000  16.90999985  54.94999695
C     5.78000021  17.31999969  54.59999847
C     5.49000025  17.90999985  53.33000183
C     6.54999971  18.01000023  52.45999908
C     7.83999968  17.53999901  52.77999878
C    11.75000000  16.28000069  53.40000153
C    12.53999901  16.63999939  52.22000122
C    13.92000008  16.57999992  52.11000061
C     4.09000015  18.25000000  52.95999908
H     3.77252316  17.65833855  52.10136795
H     8.73000050  18.04999924  50.84999847
H     9.55000019  15.95999908  55.20999908
H     7.23999977  16.54000092  55.93999863
H     5.03000021  17.31999969  55.38999939
H     6.26999950  18.39999962  51.47999573
H    14.40000057  16.77999878  51.16000366
H     3.42999983  17.94999886  53.77999878
H     4.19999981  19.32999992  52.80000305
S    14.98999977  15.72999954  55.79999924
C    17.63000107  15.36000061  55.05000305
C    16.38000107  15.72999954  54.68000031
C    16.04999924  16.23999977  53.43000031
C    17.05000114  16.39000130  52.50999832
C    18.32999992  15.92000008  52.83000183
C    19.42000008  15.98999977  51.88000107
C    20.69000053  15.72999954  52.22999954
C    21.07000160  15.38000011  53.59000397
C    20.10000038  15.26000023  54.54999924
C    18.68999863  15.47000027  54.13000107
C    14.65999985  16.34000015  53.27999878
C    13.86999989  16.03000069  54.45000076
C    12.48999977  16.02000046  54.55999756
C    22.53999901  14.98000050  53.93000031
H    22.72235298  15.16235352  54.98905563
H    17.84000015  14.93999958  56.03000259
H    16.79000092  16.72000122  51.51000214
H    19.11000061  16.29999924  50.89000320
H    21.47000122  15.73999977  51.47999573
H    20.39999962  14.82999992  55.50000000
H    11.97000027  16.11999893  55.51000214
H    23.19000053  15.47000027  53.18999863
H    22.70999908  13.93000031  53.67000198
