96

S    12.35999966  17.01000023  44.38000107
C     9.82999992  17.53999901  45.05000305
C    11.00999928  17.05000114  45.45999908
C    11.31000042  16.46000099  46.70999908
C    10.31999969  16.36999893  47.65999603
C     8.97000027  16.84999847  47.29999924
C     7.88999987  16.84000015  48.20999908
C     6.69000053  17.40999985  47.90999985
C     6.47000027  17.85000038  46.55000305
C     7.44000006  17.81999969  45.59000015
C     8.75000000  17.42000008  45.96000290
C    12.71999931  16.20000076  46.81999969
C    13.40999985  16.35000038  45.63000107
C    14.78000069  16.22999954  45.54999924
C     5.03000021  18.12999916  46.11000061
H     4.72963095  17.50131989  45.27176285
H     9.67000008  17.78000069  44.00000000
H    10.52000046  15.92000008  48.62999725
H     8.10000038  16.34000015  49.15000153
H     5.82000017  17.39999962  48.55999756
H     7.25000000  18.36000061  44.65999985
H    15.31999969  16.36000061  44.61000061
H     4.41000032  17.81999969  46.95999908
H     4.90999985  19.18000031  45.84000015
S    15.88000107  15.31000042  49.22999954
C    18.51000023  14.98000050  48.41999817
C    17.20000076  15.36000061  48.11999893
C    16.87999916  15.65000057  46.76000214
C    17.85000038  15.76000023  45.80999756
C    19.22000122  15.47999954  46.11000061
C    20.25000000  15.57000065  45.14999771
C    21.52000046  15.17000008  45.47999954
C    21.81999969  14.48999977  46.70000076
C    20.79000092  14.37999916  47.63999939
C    19.47000122  14.91000080  47.38999939
C    15.47000027  15.98999977  46.70999908
C    14.84000015  15.73999977  47.93000031
C    13.43999958  15.81999969  47.97000122
C    23.23999786  13.96999931  47.09000015
H    23.55189514  14.52290535  47.97606659
H    18.75000000  14.57999992  49.40000153
H    17.70000076  16.18000031  44.81999969
H    20.03000069  15.93999958  44.15999985
H    22.40999985  15.29000092  44.87999725
H    20.97999954  13.97999954  48.63999939
H    12.98999977  15.34000015  48.82999802
H    23.95999908  14.14000034  46.29000092
H    23.34000015  12.88000011  47.15999985
S    11.76000023  16.77000046  50.98999786
C     9.00000000  16.90000153  51.65000153
C    10.26999950  16.53000069  51.95000076
C    10.57000065  16.13999939  53.30999756
C     9.55000019  16.17000008  54.25000000
C     8.27000046  16.55999947  53.96999741
C     7.36999989  16.80999947  55.02999878
C     6.10000038  17.27000046  54.72000122
C     5.84000015  17.70000076  53.37999725
C     6.70000029  17.61999893  52.36999893
C     7.96000004  16.97999954  52.63000107
C    12.02000046  16.05999947  53.56999969
C    12.69000053  16.45000076  52.39999771
C    14.04999924  16.57999992  52.37999725
C     4.46000004  18.17000008  53.04999924
H     4.11272335  17.96311188  52.03772736
H     8.78999996  17.39999962  50.70999908
H     9.82999992  16.06999969  55.30000305
H     7.73000002  16.61000061  56.03000259
H     5.36000013  17.26000023  55.51000214
H     6.57000017  17.98999977  51.36000061
H    14.60000038  16.97000122  51.52000046
H     3.75999975  17.81999969  53.81999969
H     4.36999989  19.23999977  53.27999878
S    15.18000031  15.14999962  55.86000061
C    17.89999962  15.10000038  55.30000305
C    16.57999992  15.47000027  54.93000031
C    16.23999977  16.10000038  53.61999893
C    17.25000000  16.06999969  52.70000076
C    18.50000000  15.76000023  53.02999878
C    19.47000122  15.67999935  52.00000000
C    20.72999954  15.19000053  52.21000290
C    21.11999893  14.88999939  53.55999756
C    20.13999939  14.80999947  54.54999924
C    18.86999893  15.29999924  54.34000015
C    14.81999969  16.31999969  53.47999954
C    14.13000011  15.88999939  54.65000153
C    12.76000023  15.78999996  54.72000122
C    22.60999870  14.60000038  53.90999603
H    22.79911232  14.87988663  54.94633484
H    18.12999916  14.61999989  56.25000000
H    17.09000015  16.31000137  51.65000153
H    19.10000038  16.05999947  51.04999924
H    21.35000038  15.01000023  51.32999802
H    20.43000031  14.29999924  55.47000122
H    12.25000000  15.44000053  55.61000061
H    23.21000099  15.26999950  53.27999878
H    22.85000038  13.55000019  53.69999695
