96

S    12.56000042  16.39999962  44.18000031
C     9.77999973  16.70999908  44.86999893
C    11.03999996  16.36000061  45.25000000
C    11.46999931  16.14999962  46.59999847
C    10.53999996  16.25000000  47.60000229
C     9.21000004  16.60000038  47.32999802
C     8.19999981  16.63999939  48.27999878
C     6.88000011  16.86000061  47.95000076
C     6.50000000  17.00000000  46.56999969
C     7.44000006  16.97000122  45.54000092
C     8.82000065  16.77000046  45.91999817
C    12.84999943  16.03999901  46.73999786
C    13.57999992  16.17000008  45.56999969
C    14.96000099  16.18000031  45.47999954
C     5.03000021  17.22999954  46.27999878
H     4.79119635  17.00524330  45.24050140
H     9.55000019  16.97000122  43.83999634
H    10.88000107  16.07999992  48.61999893
H     8.53999996  16.28000069  49.23999786
H     6.11999989  16.70999908  48.70999908
H     7.13000011  17.05000114  44.50000000
H    15.44999981  16.29999924  44.52000046
H     4.32999992  16.59000015  46.84999847
H     4.79999971  18.27999878  46.52000046
S    15.98000050  15.27999973  49.18000031
C    18.63999939  15.18000031  48.54999924
C    17.40999985  15.54999924  48.18999863
C    17.14999962  15.80000019  46.81000137
C    18.23999977  15.95000076  46.00000000
C    19.52999878  15.59999943  46.35000229
C    20.52000046  15.50000000  45.44000244
C    21.64999962  14.85999966  45.73999786
C    21.94000053  14.34999943  47.02999878
C    21.01000023  14.44000053  48.00000000
C    19.75000000  15.06000042  47.68000031
C    15.70000076  15.88999939  46.69000244
C    14.96000099  15.65999985  47.85999680
C    13.56999969  15.81999969  47.93000031
C    23.39999962  14.01999950  47.25999832
H    23.68225861  14.38396454  48.24790573
H    18.92000008  14.78999996  49.52000046
H    18.13999939  16.23999977  44.94999695
H    20.38999939  15.80000019  44.40000153
H    22.42000198  14.82999992  44.98000336
H    21.25000000  14.14000034  49.02000046
H    13.09000015  15.76000023  48.90999603
H    24.07999992  14.37000084  46.46999741
H    23.55999947  12.94000053  47.23999786
S    11.97000027  16.90999985  50.97999954
C     9.44000053  17.38999939  51.49000168
C    10.59000015  16.90000153  51.95999908
C    10.84000015  16.54000092  53.29999924
C     9.80000019  16.56999969  54.20999908
C     8.59000015  16.95000076  53.75999832
C     7.46000004  16.92000008  54.61999893
C     6.32000017  17.53000069  54.15000153
C     6.01000023  17.86999893  52.85999680
C     7.05999947  17.79000092  51.93999863
C     8.34999943  17.42000008  52.37999725
C    12.28000069  16.34000015  53.52000427
C    13.01000023  16.48999977  52.27000427
C    14.32999992  16.44000053  52.14000320
C     4.59000015  18.22000122  52.39999771
H     4.20298386  17.56558990  51.61893082
H     9.30000019  17.72999954  50.47000122
H    10.01999950  16.39000130  55.26000214
H     7.55000019  16.39999962  55.56999969
H     5.55000019  17.56999969  54.92000198
H     6.94000006  17.90999985  50.86000061
H    14.80999947  16.70999908  51.19999695
H     3.98999977  18.13999939  53.31999969
H     4.65999985  19.25000000  52.02999878
S    15.53999996  15.55999947  55.81999969
C    18.15000153  15.06999969  54.95999908
C    16.90999985  15.57000065  54.68999863
C    16.57999992  15.95000076  53.37999725
C    17.60000038  16.06999969  52.36000061
C    18.95000076  15.72999954  52.77000046
C    20.06000137  15.98999977  51.90999985
C    21.32999802  15.57999992  52.18999863
C    21.54999924  14.82999992  53.40999985
C    20.52000046  14.63000107  54.27999878
C    19.17000008  15.11000061  54.03999710
C    15.08999920  16.13000107  53.27999878
C    14.40000057  15.86999989  54.50000000
C    13.01000023  16.00000000  54.65999985
C    23.02999878  14.55999947  53.77999878
H    23.20527840  14.86848927  54.81063461
H    18.42000008  14.61999989  55.91999817
H    17.38000107  16.44000053  51.36000061
H    19.92000008  16.52000046  50.97000122
H    22.15999985  15.95999908  51.59999847
H    20.63999939  14.30999947  55.31000137
H    12.51000023  15.59000015  55.54000092
H    23.72999954  15.03999901  53.08000183
H    23.16999817  13.48000050  53.68999863
