96

S    12.18000031  16.57999992  44.09999847
C     9.53999996  17.01000023  44.86999893
C    10.81999969  16.51000023  45.18000031
C    11.05000019  16.07999992  46.52000046
C    10.03999901  15.93999958  47.42000198
C     8.69999981  16.39999962  47.09999847
C     7.69000006  16.40999985  48.06999969
C     6.42000008  16.93000031  47.64999771
C     6.15000010  17.46000099  46.36000061
C     7.16000032  17.46999931  45.47000122
C     8.48999977  16.98999977  45.83000183
C    12.44999981  15.75000000  46.68000031
C    13.15999985  16.03000069  45.45999908
C    14.52000046  16.21999931  45.45000076
C     4.78999996  17.90999985  45.90999985
H     4.38967514  17.28806686  45.10935211
H     9.35999966  17.67000008  44.02000046
H    10.18000031  15.77000046  48.47999954
H     7.95000029  16.03999901  49.06000137
H     5.61999989  17.10000038  48.36000061
H     7.03000021  17.82999992  44.45000076
H    15.05000019  16.50000000  44.54000092
H     4.03999996  17.94999886  46.72000122
H     4.81999969  18.96999931  45.61999893
S    15.81999969  15.24000072  49.05000305
C    18.38000107  14.81999969  48.04999924
C    17.05999947  15.24000072  47.84999847
C    16.72000122  15.78999996  46.59000015
C    17.69000053  15.92000008  45.54999924
C    18.96999931  15.36000061  45.77999878
C    19.97999954  15.34000015  44.73999786
C    21.25999832  14.86999989  44.93999863
C    21.65999985  14.55999947  46.25999832
C    20.75000000  14.50000000  47.27000427
C    19.30999947  14.80999947  47.02999878
C    15.27999973  16.01000023  46.59000015
C    14.63000107  15.62999916  47.80000305
C    13.23999977  15.43000031  47.84000015
C    23.05000114  14.39000034  46.68000031
H    23.21413040  14.81102943  47.67191696
H    18.68999863  14.60000038  49.06999969
H    17.38999939  16.40999985  44.62999725
H    19.71999931  15.77000046  43.77999878
H    21.97000122  15.10000038  44.15999985
H    21.01000023  14.22999954  48.29000092
H    12.76000023  15.21999931  48.79000092
H    23.67000198  14.88999939  45.93000031
H    23.29999924  13.31999969  46.72000122
S    16.20000076  12.76000023  52.18000031
C    18.81999969  12.31999969  51.38999939
C    17.47999954  12.28999996  51.11000061
C    16.95000076  11.73999977  49.91000366
C    17.86000061  11.31000042  48.94000244
C    19.29000092  11.32999992  49.16999817
C    20.13999939  10.81999969  48.22000122
C    21.50000000  10.73999977  48.53000259
C    22.07999992  11.21999931  49.73999786
C    21.25999832  11.72999954  50.70999908
C    19.84000015  11.73999977  50.48999786
C    15.50000000  11.82999992  49.86000061
C    14.93999958  12.35000038  50.97999954
C    13.61999989  12.79000092  51.06999969
C    23.50000000  10.69000053  50.06000137
H    23.90373993  11.00165844  51.02331161
H    19.19999886  12.81999969  52.28000259
H    17.48999977  10.88000107  48.01000214
H    19.70999908  10.29000092  47.36999893
H    22.06999969  10.06999969  47.88999939
H    21.59000015  11.96000004  51.72000122
H    13.26000023  13.38999939  51.90000153
H    23.40999985   9.59999943  50.01999664
H    24.10000038  10.97000027  49.18000031
S    12.17000008  11.87999916  47.49000168
C     9.48999977  12.48999977  48.23999786
C    10.84000015  12.61000061  48.47000122
C    11.36000061  13.02000046  49.72999954
C    10.43000031  13.55999947  50.59999847
C     9.02000046  13.55000019  50.34999847
C     8.17000008  13.94999981  51.38000107
C     6.86999989  14.09999943  51.03000259
C     6.40999985  13.63999939  49.80999756
C     7.17000008  13.04999924  48.92000198
C     8.53999996  13.00000000  49.13999939
C    12.76999950  12.63000011  49.95999908
C    13.30999947  12.02999973  48.79000092
C    14.65000057  11.67000008  48.70999908
C     4.92999983  13.96000004  49.50000000
H     4.62835169  13.60089397  48.51605225
H     9.15999985  12.10000038  47.28000259
H    10.77000046  13.86000061  51.59000015
H     8.67000008  14.45000076  52.21000290
H     6.15000010  14.63999939  51.65000153
H     6.78999996  12.76999950  47.94000244
H    15.11999989  11.56999969  47.72999573
H     4.77999973  15.03999901  49.58000183
H     4.42999983  13.43000031  50.31999969
