96

S    12.15999985  16.72999954  44.02999878
C     9.46000004  17.05000114  44.79000092
C    10.73999977  16.62999916  45.08999634
C    11.05999947  16.22999954  46.43000031
C    10.06999969  16.23999977  47.43000031
C     8.73000050  16.69999886  47.15000153
C     7.72000027  16.75000000  48.13999939
C     6.51000023  17.28999901  47.83000183
C     6.19999981  17.86999893  46.56999969
C     7.17999983  17.82999992  45.54000092
C     8.43000031  17.17000008  45.79000092
C    12.51000023  16.11999893  46.59999847
C    13.21000004  16.36000061  45.40000153
C    14.60000038  16.32999992  45.40999985
C     4.82999992  18.30999947  46.23000336
H     4.47747993  17.79158783  45.33832932
H     9.26999950  17.61999893  43.88000107
H    10.29000092  15.85000038  48.41999817
H     7.82999992  16.36999893  49.15000153
H     5.78000021  17.19000053  48.62999725
H     6.94000006  17.97000122  44.48999786
H    15.21999931  16.50000000  44.54000092
H     4.15999985  17.94999886  47.01000214
H     4.74000025  19.40000153  46.20999908
S    15.67000008  15.47000027  49.15999985
C    18.27999878  15.06999969  48.40000153
C    17.05999947  15.47999954  48.06999969
C    16.67000008  15.84000015  46.72999954
C    17.64999962  16.06999969  45.79999924
C    18.96999931  15.72000027  46.10000229
C    20.10000038  15.77000046  45.13000107
C    21.34000015  15.21000004  45.37000275
C    21.63999939  14.67000008  46.63000107
C    20.65000153  14.57999992  47.58999634
C    19.27999878  15.11000061  47.39999771
C    15.25000000  16.04999924  46.59000015
C    14.56999969  15.80999947  47.78999710
C    13.20000076  15.88999939  47.81000137
C    23.09999847  14.30999947  46.97000122
H    23.37132835  14.83837605  47.88394928
H    18.55999947  14.78999996  49.41999817
H    17.36999893  16.35000038  44.79000092
H    19.76000023  16.13999939  44.16999817
H    22.14999962  15.26000023  44.64000320
H    20.94000053  14.11000061  48.53000259
H    12.64999962  15.80999947  48.75000000
H    23.78000069  14.47999954  46.11999893
H    23.16999817  13.22999954  47.12999725
S    12.10000038  16.77000046  50.97999954
C     9.48999977  17.56000137  51.75000000
C    10.70000076  17.05000114  52.06999969
C    10.97000027  16.61999893  53.40000153
C     9.88000011  16.52000046  54.31999969
C     8.57999992  17.02000046  53.92000198
C     7.42999983  16.95000076  54.78000259
C     6.17999983  17.31999969  54.43000031
C     6.01999998  17.86999893  53.11999893
C     7.09000015  18.02999878  52.29999924
C     8.38999939  17.56999969  52.65999603
C    12.38000011  16.28000069  53.59000397
C    13.12999916  16.43000031  52.38999939
C    14.52000046  16.65999985  52.41000366
C     4.65000010  18.30000114  52.69000244
H     4.28779459  17.78154945  51.80224228
H     9.26999950  17.71999931  50.70000076
H    10.05000019  15.90000057  55.20000076
H     7.63999987  16.55999947  55.77000046
H     5.35000038  17.23999977  55.13000107
H     7.09999990  18.40999985  51.27999878
H    15.06000042  17.00000000  51.52000046
H     3.97000027  18.02000046  53.50000000
H     4.48999977  19.37999916  52.57999802
S    15.51000023  15.57999992  56.05999756
C    18.20000076  15.29000092  55.28999710
C    16.94000053  15.64000034  54.93000031
C    16.61000061  16.18999863  53.73000336
C    17.63000107  16.36999893  52.81999969
C    18.94000053  15.97000027  53.04000092
C    19.90999985  15.82999992  52.02000046
C    21.19999886  15.29000092  52.28000259
C    21.57999992  15.03000069  53.61000061
C    20.63999939  15.14000034  54.59999847
C    19.27999878  15.48999977  54.34000015
C    15.18000031  16.31999969  53.57999802
C    14.50000000  16.00000000  54.71000290
C    13.12999916  16.02000046  54.72000122
C    23.05000114  14.72000027  54.02000046
H    23.26974106  15.13112640  55.00528717
H    18.50000000  14.75999928  56.18999863
H    17.28000069  16.68000031  51.84999847
H    19.76000023  16.26000023  51.03000259
H    21.87000084  15.14000034  51.43000031
H    21.00000000  14.73000050  55.54000092
H    12.61999989  15.72000027  55.63000107
H    23.77000046  15.13000011  53.29999924
H    23.08000183  13.63999939  53.86000061
