96

S    12.28999996  16.28000069  44.02999878
C     9.63999939  17.10000038  44.86000061
C    10.88000107  16.48999977  45.13000107
C    11.21999931  15.95000076  46.38999939
C    10.29999924  16.09000015  47.42000198
C     9.04999924  16.69999886  47.18999863
C     7.92999983  16.57999992  48.15999985
C     6.63999987  16.93000031  47.83000183
C     6.30999994  17.42000008  46.47999573
C     7.34000015  17.53000069  45.56999969
C     8.69000053  17.18000031  45.86000061
C    12.65999985  15.72000027  46.55000305
C    13.36999989  15.86999989  45.38999939
C    14.70000076  15.77000046  45.30000305
C     4.90000010  17.85000038  46.13999939
H     4.46923256  17.22538757  45.35744095
H     9.38000011  17.35000038  43.82999802
H    10.50000000  15.54999924  48.34000015
H     8.15999985  16.11999893  49.12000275
H     5.98000002  17.01000023  48.68999863
H     7.17000008  17.77000046  44.52000046
H    15.29999924  16.00000000  44.41999817
H     4.41000032  17.77000046  47.11999893
H     4.92000008  18.93000031  45.93999863
S    15.82999992  15.06000042  49.00000000
C    18.51000023  14.98000050  48.44999695
C    17.22999954  15.27999973  47.97999954
C    16.87000084  15.59000015  46.70000076
C    17.92000008  15.65000057  45.76000214
C    19.22999954  15.24000072  46.07999802
C    20.27000046  15.17000008  45.06000137
C    21.53000069  14.89999962  45.41999817
C    21.96000099  14.63000107  46.77000046
C    20.96999931  14.55999947  47.78999710
C    19.59000015  14.92000008  47.49000168
C    15.46000004  15.52999973  46.43000031
C    14.75000000  15.38000011  47.63000107
C    13.38000107  15.38000011  47.74000168
C    23.38999939  14.28999996  47.08000183
H    23.64826012  14.68088150  48.06418228
H    18.67000008  14.47000027  49.40000153
H    17.69000053  15.77999973  44.69999695
H    20.06999969  15.52999973  44.05000305
H    22.32000160  14.80999947  44.68000031
H    21.07999992  14.19999981  48.81000137
H    12.90999985  15.22999954  48.70999908
H    23.97000122  14.80000019  46.30000305
H    23.52000046  13.21000004  46.98999786
S    15.97000027  12.36999989  52.25999832
C    18.57999992  11.69000053  51.50000000
C    17.23999977  11.71000004  51.24000168
C    16.72000122  11.44000053  49.92000198
C    17.61999893  11.17000008  48.95000076
C    18.98999977  11.02000046  49.20000076
C    19.96999931  10.75000000  48.18000031
C    21.31000137  10.59999943  48.48999786
C    21.73999977  10.90000057  49.82999802
C    20.85000038  11.36999989  50.72000122
C    19.45000076  11.38000011  50.47000122
C    15.29999924  11.78999996  49.79999924
C    14.78999996  12.36999989  50.97999954
C    13.45000076  12.81000042  50.98999786
C    23.15000153  10.64000034  50.11000061
H    23.55221558  10.96459484  51.06966782
H    18.89999962  11.85999966  52.52999878
H    17.30999947  11.17000008  47.90999985
H    19.62000084  10.40999985  47.21000290
H    22.00000000  10.18000031  47.76000214
H    21.19999886  11.56000042  51.72999954
H    13.07999992  13.23999977  51.90999985
H    23.21000099   9.55000019  49.94999695
H    23.67000198  11.03999996  49.23999786
S    11.89000034  11.61000061  47.64999771
C     9.35000038  12.01000023  48.50999832
C    10.65000057  12.10000038  48.77999878
C    11.17000008  12.69999981  49.94999695
C    10.36999893  13.22000027  50.87999725
C     9.00000000  13.20000076  50.63000107
C     8.06999969  13.88000011  51.47999573
C     6.74000025  13.94999981  51.25000000
C     6.25999975  13.45999908  50.01999664
C     7.03999996  12.79999924  49.09999847
C     8.47000027  12.61000061  49.41999817
C    12.60000038  12.60000038  49.93999863
C    13.12000084  11.97999954  48.76999664
C    14.47999954  11.64999962  48.64999771
C     4.88000011  13.96000004  49.52999878
H     4.59698439  13.54962826  48.56066895
H     8.97000027  11.71000004  47.52999878
H    10.77000046  13.63999939  51.79999924
H     8.48999977  14.50000000  52.27000427
H     6.17000008  14.75000000  51.70000076
H     6.60000038  12.51999950  48.15000153
H    14.88000011  11.35000038  47.69000244
H     5.03999996  15.03999901  49.52000046
H     4.15999985  13.63000011  50.28999710
