96

S    11.94000053  17.10000038  43.75999832
C     9.31999969  17.46999931  44.55999756
C    10.52999973  16.97000122  44.86999893
C    10.77999973  16.44000053  46.19999695
C     9.68000031  16.31000137  47.06999969
C     8.39999962  16.79999924  46.69000244
C     7.42000008  16.82999992  47.70000076
C     6.28000021  17.53999901  47.52999878
C     6.06999969  18.12999916  46.25000000
C     7.00999975  18.17000008  45.27999878
C     8.25000000  17.50000000  45.47999954
C    12.23999977  16.27000046  46.39999771
C    12.96000004  16.53000069  45.19000244
C    14.32999992  16.39999962  45.12000275
C     4.67000008  18.64999962  45.93999863
H     4.17389631  17.93340492  45.28541946
H     9.22000027  17.98999977  43.61999893
H     9.80000019  15.90000057  48.06000137
H     7.46999979  16.29999924  48.64999771
H     5.59999990  17.52000046  48.37999725
H     6.94999981  18.81999969  44.41999817
H    14.75000000  16.34000015  44.12000275
H     4.03999996  18.68000031  46.84000015
H     4.59999990  19.65999985  45.52999878
S    15.48999977  15.67999935  48.86000061
C    18.15000153  15.19000053  48.20000076
C    16.87000084  15.60999966  47.80000305
C    16.53000069  16.05999947  46.50000000
C    17.57999992  16.25000000  45.58000183
C    18.86000061  15.90000057  45.94999695
C    19.86999893  15.95999908  44.95999908
C    21.07000160  15.39999962  45.17000198
C    21.44000053  14.92000008  46.47999573
C    20.48000145  14.92000008  47.50999832
C    19.14999962  15.31000042  47.25000000
C    15.06000042  16.13000107  46.29000092
C    14.34999943  15.80999947  47.45999908
C    12.97999954  15.90000057  47.48000336
C    22.86999893  14.52999973  46.79000092
H    23.18670845  14.99066544  47.72572708
H    18.37000084  14.75999928  49.16999817
H    17.30999947  16.64999962  44.61000061
H    19.70999908  16.36999893  43.95999908
H    21.80000114  15.29000092  44.36999893
H    20.73999786  14.37999916  48.41999817
H    12.44999981  15.62000084  48.37999725
H    23.52999878  14.73999977  45.93999863
H    22.92000008  13.43999958  46.86000061
S    11.90999985  17.26000023  50.48999786
C     9.22999954  17.56999969  51.19999695
C    10.46000004  17.13999939  51.56999969
C    10.75000000  16.63999939  52.85999680
C     9.72999954  16.51000023  53.75000000
C     8.48999977  17.05000114  53.50999832
C     7.44999981  17.12000084  54.47000122
C     6.23000050  17.64999962  54.10999680
C     5.86999989  18.00000000  52.77999878
C     6.91999960  18.01000023  51.86000061
C     8.19000053  17.57999992  52.18999863
C    12.22000027  16.51000023  52.97999954
C    13.00000000  16.84000015  51.81000137
C    14.42999935  16.97999954  51.86000061
C     4.46000004  18.30000114  52.44999695
H     4.06824350  17.69785500  51.63021088
H     9.10000038  18.06999969  50.24000168
H     9.96999931  16.14999962  54.75000000
H     7.69000006  16.70999908  55.45000076
H     5.55999994  17.85000038  54.93999863
H     6.80999994  18.42000008  50.86000061
H    14.96000099  17.01000023  50.90999985
H     3.97000027  18.13999939  53.40999985
H     4.44000006  19.37000084  52.16999817
S    15.26999950  15.84000015  55.54999924
C    17.86000061  15.36000061  54.84000397
C    16.72000122  16.03999901  54.59000015
C    16.42000008  16.67000008  53.34999847
C    17.30999947  16.54999924  52.36999893
C    18.59000015  15.98000050  52.60000229
C    19.57999992  15.95999908  51.55000305
C    20.88000107  15.51000023  51.84000015
C    21.18999863  15.07999992  53.15999985
C    20.17999840  14.88999939  54.12000275
C    18.86000061  15.34000015  53.87000275
C    15.01999950  16.86000061  53.13000107
C    14.27999973  16.45000076  54.23999786
C    12.88000011  16.26000023  54.19000244
C    22.60000038  14.73000050  53.61000061
H    22.94747925  15.07747936  54.58294296
H    17.95999908  14.77000046  55.73999786
H    17.02000046  16.76000023  51.33999634
H    19.37999916  16.31000137  50.52999878
H    21.65999985  15.57000065  51.09000397
H    20.43000031  14.45000076  55.06999969
H    12.25999928  16.01000023  55.05000305
H    23.26999855  15.21999931  52.90000153
H    22.69000053  13.63999939  53.54000092
