96

S    12.35999966  16.90000153  44.12000275
C     9.65999985  17.14999962  44.81999969
C    10.95999908  16.95000076  45.22999573
C    11.36000061  16.56999969  46.56999969
C    10.27999973  16.52000046  47.50999832
C     8.96000004  16.84999847  47.11000061
C     7.85000038  16.79000092  48.01000214
C     6.51999998  17.05000114  47.56000137
C     6.30999994  17.54999924  46.25999832
C     7.40000010  17.63000107  45.40000153
C     8.71999931  17.25000000  45.79999924
C    12.76000023  16.46999931  46.68000031
C    13.45000076  16.65999985  45.45999908
C    14.81999969  16.69000053  45.38999939
C     4.90999985  17.88999939  45.84999847
H     4.45496178  17.26161385  45.08438110
H     9.39000034  17.52000046  43.82999802
H    10.47000027  15.92000008  48.40000153
H     8.05000019  16.29999924  48.95000076
H     5.65000010  16.84999847  48.16999817
H     7.23999977  17.95999908  44.38000107
H    15.31000042  16.77999878  44.43000031
H     4.23999977  17.90999985  46.72000122
H     4.86999989  18.94000053  45.52999878
S    15.92000008  15.88999939  49.13999939
C    18.63999939  15.55999947  48.46000290
C    17.31999969  15.86999989  48.08000183
C    16.98999977  16.32999992  46.81000137
C    17.98999977  16.47999954  45.90000153
C    19.31999969  16.20000076  46.20999908
C    20.32999992  16.31000137  45.15999603
C    21.61999893  16.03000069  45.40999985
C    22.01000023  15.60999966  46.70000076
C    21.07000160  15.43000031  47.64999771
C    19.70000076  15.73999977  47.47000122
C    15.52999973  16.45000076  46.56000137
C    14.80999947  16.18999863  47.75000000
C    13.40999985  16.20000076  47.88999939
C    23.40999985  15.06000042  46.88999939
H    23.66224480  15.14862728  47.94670105
H    18.86999893  15.22999954  49.45999908
H    17.64000130  16.79999924  44.92000198
H    20.15999985  16.69999886  44.15999985
H    22.32999992  16.03000069  44.59000015
H    21.47000122  14.98999977  48.55999756
H    12.86999893  15.92000008  48.80000305
H    24.18999863  15.57000065  46.31000137
H    23.31000137  14.01000023  46.59000015
S    15.90000057  13.15999985  52.06999969
C    18.47999954  12.63000011  51.23000336
C    17.17000008  12.76999950  50.90999985
C    16.67000008  12.55000019  49.62999725
C    17.52000046  12.01000023  48.62999725
C    18.93000031  11.77000046  48.97999573
C    19.89999962  11.23000050  48.06999969
C    21.22999954  11.05000019  48.34999847
C    21.61000061  11.39999962  49.69999695
C    20.73999786  11.84999943  50.65000153
C    19.38999939  12.18999958  50.27999878
C    15.25000000  12.75000000  49.52999878
C    14.68999958  13.09000015  50.77999878
C    13.32999992  13.40000057  50.97000122
C    23.05000114  11.05999947  50.13000107
H    23.29204369  11.42673111  51.12751007
H    18.76000023  12.56999969  52.28000259
H    17.10000038  11.69999981  47.68000031
H    19.57999992  10.90999985  47.08000183
H    21.93000031  10.52999973  47.70000076
H    20.97999954  11.97999954  51.70000076
H    12.98999977  13.80000019  51.91999817
H    23.21000099   9.98000050  49.97000122
H    23.59999847  11.56000042  49.33000183
S    11.82000065  12.30999947  47.47000122
C     9.15000057  12.94999981  48.18999863
C    10.50000000  12.89999962  48.56999969
C    11.03000069  13.22999954  49.86999893
C    10.14999962  13.88000011  50.68000031
C     8.75000000  13.88000011  50.38000107
C     7.79999971  14.29999924  51.36000061
C     6.47000027  14.45000076  51.09000397
C     5.98000002  14.09000015  49.79999924
C     6.80999994  13.53000069  48.83999634
C     8.25000000  13.50999928  49.13000107
C    12.51999950  13.09999943  49.91000366
C    13.04999924  12.61000061  48.66000366
C    14.44000053  12.41000080  48.43000031
C     4.53000021  14.37000084  49.45000076
H     4.31060791  14.10106850  48.41673279
H     8.75000000  12.58999920  47.25000000
H    10.51000023  14.37000084  51.58000183
H     8.14000034  14.51000023  52.36999893
H     5.78999996  14.88000011  51.81000137
H     6.50000000  13.19000053  47.84999847
H    14.89999962  12.01000023  47.52999878
H     4.40000010  15.44999981  49.59999847
H     3.81000018  13.86999989  50.11000061
