96

S    12.05000019  16.15999985  44.20000076
C     9.46000004  16.61000061  45.06999969
C    10.69000053  16.15999985  45.35999680
C    11.09000015  15.95999908  46.66999817
C    10.14000034  15.95000076  47.65999603
C     8.78999996  16.28999901  47.32999802
C     7.77999973  16.42000008  48.23999786
C     6.50000000  16.90999985  47.97999954
C     6.15000010  17.14999962  46.69000244
C     7.11000013  17.04000092  45.70000076
C     8.47999954  16.69999886  46.00000000
C    12.48999977  15.65999985  46.76000214
C    13.19000053  15.93000031  45.56000137
C    14.56999969  16.00000000  45.54999924
C     4.78999996  17.59000015  46.24000168
H     4.38511896  16.86400604  45.53494644
H     9.39000034  16.97000122  44.05000305
H    10.44999981  15.69000053  48.67000198
H     7.88999987  16.21999931  49.29999924
H     5.80999947  16.97000122  48.81999969
H     6.80000019  17.22999954  44.68000031
H    15.11999989  16.03999901  44.61999893
H     4.09999990  17.86000061  47.04999924
H     4.82999992  18.55999947  45.72999954
S    15.65999985  15.21000004  49.20999908
C    18.46999931  14.98000050  48.27999878
C    17.13000107  15.38000011  48.06999969
C    16.72000122  15.93000031  46.81999969
C    17.63000107  16.15999985  45.79000092
C    19.00000000  15.75000000  45.97999954
C    19.98999977  15.77000046  44.93999863
C    21.30000114  15.47999954  45.26000214
C    21.75000000  15.01999950  46.55000305
C    20.81999969  14.80999947  47.54000092
C    19.45000076  15.21999931  47.28000259
C    15.25000000  15.88999939  46.75000000
C    14.56999969  15.57000065  47.87000275
C    13.20000076  15.52000046  47.93000031
C    23.15999985  14.52999973  46.84999847
H    23.43435860  14.87655830  47.84635544
H    18.64999962  14.29999924  49.09999847
H    17.30999947  16.54000092  44.81999969
H    19.76000023  16.17000008  43.95000076
H    21.97000122  15.44999981  44.40000153
H    21.04000092  14.27999973  48.46000290
H    12.64999962  15.59999943  48.86000061
H    23.95000076  14.85000038  46.16000366
H    23.12000084  13.45000076  46.65999985
S    16.04999924  12.96000004  52.35000229
C    18.63000107  12.41000080  51.46999741
C    17.32999992  12.43000031  51.18999863
C    16.75000000  11.87000084  50.00000000
C    17.54999924  11.30000019  49.06000137
C    18.95000076  11.25000000  49.38999939
C    19.96000099  10.85999966  48.43000031
C    21.34000015  10.85999966  48.69999695
C    21.77999878  11.00999928  50.06000137
C    20.86000061  11.54000092  50.94999695
C    19.50000000  11.76000023  50.63000107
C    15.34000015  12.01000023  49.93000031
C    14.80000019  12.56000042  51.11000061
C    13.47000027  12.88000011  51.18000031
C    23.15999985  10.57999992  50.47999954
H    23.39945602  10.96031189  51.47303772
H    18.90999985  13.04999924  52.29999924
H    17.25000000  11.07999992  48.04000092
H    19.57999992  10.39000034  47.52999878
H    21.88999939  10.24000072  48.01000214
H    21.09999847  11.73999977  51.98999786
H    13.10999966  13.61999989  51.88999939
H    23.12000084   9.48000050  50.52999878
H    23.97999954  10.75000000  49.75999832
S    12.10999966  11.95000076  47.56999969
C     9.56999969  12.50000000  48.34999847
C    10.84000015  12.56000042  48.64999771
C    11.23000050  13.02999973  49.91000366
C    10.36999893  13.56999969  50.80999756
C     8.98999977  13.63999939  50.48999786
C     8.03999996  14.29999924  51.32999802
C     6.74000025  14.29999924  50.96000290
C     6.34000015  13.73999977  49.77000427
C     7.25000000  13.20000076  48.88999939
C     8.60000038  13.05999947  49.27999878
C    12.61999989  12.69000053  50.06000137
C    13.17999935  12.15999985  48.92000198
C    14.51000023  11.77000046  48.83999634
C     4.86000013  13.78000069  49.36999893
H     4.74462605  13.27099800  48.41307449
H     9.26000023  12.02999973  47.42000198
H    10.70000076  13.88000011  51.79999924
H     8.46000004  14.78999996  52.21000290
H     6.12999964  14.85999966  51.68000031
H     6.89000034  12.90999985  47.90000153
H    14.84000015  11.47999954  47.84999847
H     4.59000015  14.82999992  49.25000000
H     4.30999994  13.32999992  50.20999908
