96

S    11.92999935  16.95000076  44.01000214
C     9.26999950  17.18000031  44.68999863
C    10.57000065  16.82999992  45.06999969
C    10.88000107  16.47999954  46.43000031
C     9.88000011  16.39000130  47.38999939
C     8.61999989  16.81999969  47.04999924
C     7.65999985  17.06999969  48.13000107
C     6.39999962  17.52000046  47.75000000
C     6.01999998  17.77000046  46.35000229
C     7.04999971  17.64000130  45.40000153
C     8.30999947  17.18000031  45.70000076
C    12.34000015  16.31999969  46.52999878
C    13.01000023  16.55999947  45.31999969
C    14.42999935  16.56999969  45.34000015
C     4.55000019  18.04999924  45.89000320
H     4.26530075  17.46636581  45.01454926
H     9.11000061  17.56000137  43.68000031
H    10.14000034  16.23999977  48.43999863
H     7.99000025  17.00000000  49.15999985
H     5.66999960  17.54999924  48.55999756
H     6.86999989  17.86000061  44.34999847
H    14.96999931  16.84999847  44.43999863
H     3.75000000  17.78000069  46.59000015
H     4.42000008  19.11999893  45.66999817
S    15.40999985  15.52000046  49.05000305
C    18.17000008  15.31000042  48.39000320
C    16.90999985  15.62000084  48.06999969
C    16.55999947  16.05999947  46.79999924
C    17.50000000  16.18999863  45.79000092
C    18.90999985  15.95000076  46.06999969
C    19.95000076  16.02000046  45.12000275
C    21.25000000  15.57000065  45.35999680
C    21.55999947  15.18000031  46.70000076
C    20.59000015  15.18000031  47.69000244
C    19.22000122  15.53999996  47.41000366
C    15.15999985  16.22999954  46.59000015
C    14.39000034  15.93000031  47.75000000
C    13.00000000  15.93000031  47.72999573
C    22.93999863  14.78999996  47.02000046
H    23.30124474  15.20577335  47.96060181
H    18.38000107  14.68000031  49.25000000
H    17.21999931  16.23999977  44.73999786
H    19.64999962  16.54000092  44.22000122
H    21.97000122  15.54999924  44.54999924
H    20.88000107  14.89999962  48.69999695
H    12.39999962  15.84000015  48.62999725
H    23.55999947  15.00000000  46.13999939
H    22.81999969  13.71999931  47.18000031
S    15.50000000  13.15000057  52.18999863
C    18.11000061  12.44999981  51.33999634
C    16.73999977  12.53000069  51.11000061
C    16.29999924  12.07999992  49.82999802
C    17.17000008  11.46999931  48.89999771
C    18.53999901  11.43000031  49.15999985
C    19.48999977  11.05000019  48.15999985
C    20.84000015  11.05000019  48.47999954
C    21.27000046  11.59000015  49.72000122
C    20.40999985  12.05000019  50.65000153
C    19.03000069  11.94000053  50.38000107
C    14.86999989  12.35999966  49.71000290
C    14.37000084  12.96000004  50.90999985
C    13.09999943  13.38999939  50.97000122
C    22.78000069  11.42000008  50.04000092
H    23.09765434  11.69034481  51.04703140
H    18.43000031  12.68000031  52.36000061
H    16.77999878  11.10999966  47.95999908
H    19.15999985  10.72999954  47.18000031
H    21.55999947  10.53999996  47.85999680
H    20.81999969  12.35999966  51.60999680
H    12.77999973  14.01999950  51.79999924
H    23.09999847  10.40999985  49.75999832
H    23.26999855  12.03999996  49.26000214
S    11.51999950  12.51999950  47.39999771
C     9.00000000  12.88000011  48.34000015
C    10.29000092  12.97000027  48.54000092
C    10.82999992  13.34000015  49.84000397
C     9.90999985  13.71000099  50.81999969
C     8.52999973  13.60000038  50.59000015
C     7.53000021  14.06999969  51.46999741
C     6.24000025  14.22999954  51.16000366
C     5.78000021  13.76000023  49.97000122
C     6.60000038  13.22999954  49.01000214
C     7.97999954  13.22999954  49.29000092
C    12.25000000  13.12000084  49.88999939
C    12.69000053  12.56000042  48.68000031
C    14.04000092  12.18999958  48.56999969
C     4.36999989  14.14999962  49.41999817
H     4.23422527  13.89274120  48.36952972
H     8.64000034  12.51000023  47.37999725
H    10.29000092  13.86999989  51.83000183
H     7.76000023  14.51000023  52.43999863
H     5.55000019  14.56999969  51.91999817
H     6.25999975  12.94000053  48.02000046
H    14.48999977  11.82999992  47.64999771
H     4.33999968  15.22999954  49.59999847
H     3.63999987  13.61999989  50.02999878
