96

S    12.05000019  16.61000061  44.26000214
C     9.52000046  17.20999908  45.00999832
C    10.67000008  16.61999893  45.34000015
C    11.05999947  16.28999901  46.66999817
C     9.96999931  16.21000099  47.55000305
C     8.71000004  16.72999954  47.29999924
C     7.65999985  16.95000076  48.25000000
C     6.46000004  17.53000069  47.90000153
C     6.24000025  18.06999969  46.58000183
C     7.25000000  18.01000023  45.72999954
C     8.48999977  17.35999870  45.97999954
C    12.44999981  16.13000107  46.84000015
C    13.12999916  16.39999962  45.61999893
C    14.47999954  16.36999893  45.41999817
C     4.85000038  18.48999977  46.23000336
H     4.63403034  18.11565208  45.22934341
H     9.46000004  17.61000061  44.00000000
H    10.21999931  15.84000015  48.54000092
H     7.86000013  16.72999954  49.29999924
H     5.72000027  17.63000107  48.68000031
H     7.17000008  18.37000084  44.71000290
H    14.98000050  16.47999954  44.45999908
H     4.21999979  17.94999886  46.95000076
H     4.71000004  19.55999947  46.38999939
S    15.65000057  15.48999977  49.18000031
C    18.22000122  14.86999989  48.47000122
C    16.98999977  15.31999969  48.13999939
C    16.64999962  15.88000107  46.81999969
C    17.64000130  15.88999939  45.87999725
C    18.95000076  15.48999977  46.29000092
C    19.96999931  15.59999943  45.34999847
C    21.21999931  15.14000034  45.56999969
C    21.54999924  14.65999985  46.83000183
C    20.58000183  14.52999973  47.83000183
C    19.26000023  14.91000080  47.57999802
C    15.22999954  16.02000046  46.56000137
C    14.55000019  15.82999992  47.84999847
C    13.12999916  15.85000038  48.00000000
C    22.98999977  14.39000034  47.22999954
H    23.25662041  14.95832539  48.12107849
H    18.43000031  14.68999958  49.52000046
H    17.38999939  16.06999969  44.84000397
H    19.69000053  15.93000031  44.34999847
H    21.98999786  15.39999962  44.85000229
H    20.79000092  13.93000031  48.72000122
H    12.77999973  15.65999985  49.00000000
H    23.72999954  14.53999996  46.44000244
H    23.19000053  13.31999969  47.31999969
S    15.80999947  12.92000008  52.45999908
C    18.46999931  12.34000015  51.77999878
C    17.18000031  12.38000011  51.46999741
C    16.68000031  12.01000023  50.15999603
C    17.54999924  11.44000053  49.23999786
C    18.90999985  11.28999901  49.54000092
C    19.89999962  10.86999989  48.59000397
C    21.28000069  10.84000015  48.90999603
C    21.67000008  11.14999962  50.19000244
C    20.79000092  11.77999973  51.00999832
C    19.40999985  11.84000015  50.77000046
C    15.29999924  12.23999977  49.99000168
C    14.70000076  12.79999924  51.13999939
C    13.35999966  12.94000053  51.30000305
C    23.18000031  11.02000046  50.52999878
H    23.51762009  11.39895916  51.49462509
H    18.76000023  12.46000099  52.81999969
H    17.12000084  11.17000008  48.27999878
H    19.63999939  10.57000065  47.57999802
H    21.98999786  10.64000034  48.11000061
H    21.15999985  12.10999966  51.98999786
H    12.88000011  13.30999947  52.19999695
H    23.45999908   9.96000004  50.61000061
H    23.61000061  11.54999924  49.68000031
S    12.00000000  12.41000080  47.57999802
C     9.32999992  12.61999989  48.43999863
C    10.62999916  12.76000023  48.72000122
C    11.10999966  12.98999977  50.08999634
C    10.22999954  13.53000069  51.00999832
C     8.80000019  13.63000011  50.70999908
C     7.82999992  14.04000092  51.63999939
C     6.54999971  14.17000008  51.20999908
C     6.11999989  13.94000053  49.87999725
C     6.98000002  13.27000046  49.00000000
C     8.32999992  13.05999947  49.43000031
C    12.60000038  12.76000023  50.18000031
C    13.21000004  12.43000031  48.92000198
C    14.52999973  12.11999989  48.81000137
C     4.69999981  14.34999943  49.38000107
H     4.40589142  13.90883636  48.42765045
H     8.97000027  12.25999928  47.48000336
H    10.52000046  13.85000038  52.01000214
H     8.05000019  14.42000008  52.63000107
H     5.91000032  14.80999947  51.79999924
H     6.77999973  13.03999996  47.95999908
H    14.96999931  11.72000027  47.90000153
H     4.76000023  15.44000053  49.36999893
H     3.93000007  14.14000034  50.13000107
