96

S    12.56999969  17.29999924  44.19000244
C     9.81000042  17.60000038  44.85000229
C    11.03000069  17.04000092  45.11000061
C    11.40999985  16.36000061  46.31999969
C    10.36999893  16.20000076  47.21000290
C     9.09000015  16.69999886  47.01000214
C     8.06999969  16.61999893  47.95999908
C     6.77999973  17.05999947  47.65999603
C     6.44999981  17.57999992  46.39999771
C     7.50000000  17.89999962  45.56000137
C     8.82000065  17.43000031  45.86000061
C    12.81000042  16.20000076  46.52999878
C    13.53999996  16.65999985  45.45999908
C    14.93999958  16.72999954  45.48999786
C     5.09000015  17.97999954  46.02000427
H     4.72425365  17.49233818  45.11639023
H     9.68000031  18.09999847  43.89999771
H    10.54999924  15.72999954  48.18000031
H     8.25000000  16.31999969  48.99000168
H     5.98000002  16.92000008  48.36999893
H     7.31999969  18.45000076  44.65000153
H    15.51000023  17.19000053  44.68999863
H     4.42000008  17.79000092  46.86999893
H     5.00000000  19.03000069  45.72000122
S    15.88999939  15.39999962  49.13000107
C    18.64999962  15.24000072  48.44999695
C    17.35000038  15.65000057  48.16999817
C    17.05000114  16.15999985  46.84000015
C    18.06999969  16.20000076  45.89000320
C    19.38999939  15.65999985  46.11000061
C    20.39999962  15.85999966  45.21999741
C    21.70999908  15.47999954  45.47999954
C    22.04000092  15.03999901  46.79999924
C    21.01000023  14.88999939  47.70999908
C    19.64999962  15.18000031  47.41000366
C    15.64000034  16.31000137  46.63999939
C    14.92000008  15.76000023  47.74000168
C    13.52000046  15.75000000  47.68000031
C    23.38999939  14.48999977  47.12999725
H    23.56682205  14.66682148  48.19092560
H    18.89999962  15.01999950  49.48999786
H    17.90999985  16.63999939  44.91000366
H    20.25000000  16.35000038  44.26000214
H    22.37999916  15.29999924  44.65000153
H    21.18000031  14.61999989  48.75000000
H    12.88000011  15.48999977  48.52000427
H    24.15999985  14.96000099  46.50000000
H    23.29000092  13.42000008  46.90000153
S    16.09000015  12.79000092  52.25999832
C    18.73999977  12.13000107  51.53999710
C    17.36999893  12.20999908  51.22000122
C    16.88999939  12.01000023  49.91000366
C    17.85000038  11.67000008  48.92000198
C    19.20999908  11.49000072  49.20999908
C    20.23999977  11.10999966  48.29999924
C    21.56999969  10.97000027  48.62999725
C    21.98999786  11.25000000  50.00000000
C    21.02999878  11.69000053  50.89000320
C    19.67000008  11.84999943  50.48999786
C    15.44000053  12.15000057  49.80999756
C    14.94999981  12.69000053  51.00000000
C    13.67000008  13.15999985  51.04999924
C    23.45000076  11.02000046  50.34000015
H    23.65693092  11.29344463  51.37465286
H    19.02000046  12.23000050  52.57999802
H    17.68000031  11.39999962  47.88000107
H    19.92000008  10.90000057  47.28000259
H    22.23999977  10.50000000  47.91999817
H    21.38999939  11.92999935  51.88999939
H    13.34000015  13.60000038  51.98999786
H    23.45000076   9.92999935  50.38000107
H    24.18999863  11.31000042  49.59000015
S    12.02000046  12.38000011  47.35000229
C     9.48999977  12.79999924  48.26000214
C    10.80999947  12.75000000  48.56999969
C    11.32999992  13.10999966  49.84000397
C    10.39999962  13.38000107  50.87999725
C     9.02999973  13.63999939  50.56000137
C     8.10000038  14.29999924  51.40999603
C     6.83000040  14.45000076  50.97000122
C     6.38999987  13.86000061  49.75000000
C     7.28999996  13.23999977  48.93000031
C     8.61999989  13.22999954  49.27000046
C    12.79999924  12.94999981  49.91000366
C    13.28999996  12.42000008  48.73000336
C    14.63999939  11.94000053  48.63999939
C     5.03999996  14.17000008  49.25000000
H     4.78910542  13.73790359  48.28126526
H     9.04999924  12.46999931  47.31999969
H    10.78999996  13.43999958  51.88999939
H     8.47999954  14.68999958  52.35000229
H     6.19999981  15.11999989  51.55000305
H     7.11999989  13.00000000  47.88000107
H    15.08999920  11.72000027  47.68000031
H     4.90000010  15.24000072  49.09999847
H     4.32999992  13.86999989  50.02999878
