96

S    12.13000107  16.70999908  44.06999969
C     9.43000031  17.00000000  44.87999725
C    10.76000023  16.65999985  45.15999603
C    11.10999966  16.29999924  46.51000214
C    10.22999954  16.34000015  47.55000305
C     8.89999962  16.79999924  47.30999756
C     7.92999983  16.86000061  48.30999756
C     6.65000010  17.20999908  47.97999954
C     6.34999990  17.56000137  46.69000244
C     7.26999998  17.63000107  45.68000031
C     8.51000023  17.05000114  45.93000031
C    12.53000069  16.13000107  46.60999680
C    13.26000023  16.31000137  45.40000153
C    14.65000057  16.11999893  45.27999878
C     4.86000013  17.76000023  46.31999969
H     4.64108706  16.91259384  45.67032242
H     9.17000008  17.43999863  43.92000198
H    10.36000061  15.80000019  48.47999954
H     8.17000008  16.47999954  49.29999924
H     5.92000008  17.09000015  48.77999878
H     7.13999987  18.20999908  44.75999832
H    15.01000023  16.17000008  44.26000214
H     4.25000000  17.95999908  47.21000290
H     4.76000023  18.67000008  45.72000122
S    15.67999935  15.26999950  49.02000046
C    18.35000038  14.88999939  48.36999893
C    17.11000061  15.19999981  47.90999985
C    16.81999969  15.57999992  46.63000107
C    17.86000061  15.62000084  45.72999954
C    19.13999939  15.19000053  46.10000229
C    20.19000053  15.34999943  45.20000076
C    21.47000122  14.98000050  45.63999939
C    21.81999969  14.51000023  46.95999908
C    20.81999969  14.42999935  47.84000015
C    19.45999908  14.81999969  47.48000336
C    15.36999893  15.82999992  46.45999908
C    14.59000015  15.71000004  47.65999603
C    13.22000027  15.76000023  47.75000000
C    23.22000122  14.11999893  47.29999924
H    23.46750450  14.42250347  48.31751251
H    18.54999924  14.57999992  49.38999939
H    17.77000046  15.93000031  44.68999863
H    19.96999931  15.93000031  44.31000137
H    22.26000023  15.03000069  44.89999771
H    20.96999931  13.89999962  48.77999878
H    12.69000053  15.36000061  48.61000061
H    23.87000084  14.59000015  46.56000137
H    23.32999992  13.03999996  47.12999725
S    11.75000000  16.59000015  50.96000290
C     9.25000000  17.50000000  51.81000137
C    10.42000008  16.94000053  52.09000015
C    10.71000004  16.47999954  53.40000153
C     9.72000027  16.50000000  54.40000153
C     8.43999958  16.95999908  54.10999680
C     7.27999973  16.84000015  54.94999695
C     6.06999969  17.32999992  54.55999756
C     5.92999983  18.02999878  53.31999969
C     6.98000002  18.09999847  52.43000031
C     8.23000050  17.53000069  52.78999710
C    12.13000107  16.20000076  53.47000122
C    12.82999992  16.22999954  52.22000122
C    14.13000011  16.13000107  52.15000153
C     4.59000015  18.30000114  52.81999969
H     4.27040768  17.71052933  51.96064758
H     9.01000023  17.90999985  50.83000183
H     9.98000050  16.01000023  55.34000015
H     7.34000015  16.32999992  55.90999985
H     5.18000031  16.95000076  55.02999878
H     6.90000010  18.38000107  51.38999939
H    14.63000107  16.21000099  51.18999863
H     3.91000009  18.18000031  53.67000198
H     4.51999998  19.37000084  52.60000229
S    15.27999973  15.39999962  55.80999756
C    17.95999908  15.31999969  55.20999908
C    16.68000031  15.52000046  54.75999832
C    16.36000061  15.85999966  53.41999817
C    17.31999969  15.80000019  52.41000366
C    18.63999939  15.51000023  52.85999680
C    19.76000023  15.36000061  51.93999863
C    21.02999878  15.21000004  52.44999695
C    21.37000084  14.78000069  53.80000305
C    20.36000061  14.94999981  54.69999695
C    19.02000046  15.29000092  54.25000000
C    14.91000080  15.98999977  53.29999924
C    14.23999977  15.77999973  54.52000046
C    12.86999893  15.95000076  54.58000183
C    22.69000053  14.19000053  54.16999817
H    22.97187233  14.61280823  55.13430023
H    18.30999947  15.06000042  56.20999908
H    17.09000015  15.98000050  51.36000061
H    19.61000061  15.54999924  50.87999725
H    21.83000183  15.34999943  51.73999786
H    20.48000145  14.52999973  55.68999863
H    12.36999989  15.93000031  55.54999924
H    23.46999931  14.32999992  53.40999985
H    22.62000084  13.09999943  54.27000046
