96

S    12.56000042  16.59000015  44.08000183
C     9.89999962  17.01000023  44.86999893
C    11.09000015  16.51000023  45.10000229
C    11.44000053  15.98999977  46.45000076
C    10.48999977  15.98999977  47.45999908
C     9.15000057  16.54000092  47.29000092
C     8.10000038  16.47999954  48.22999954
C     6.78999996  16.95000076  48.06000137
C     6.50000000  17.53999901  46.77999878
C     7.49000025  17.40999985  45.76000214
C     8.85000038  17.04000092  45.93000031
C    12.88000011  16.00000000  46.66999817
C    13.59000015  16.26000023  45.48999786
C    14.96000099  16.28000069  45.43000031
C     5.10999966  17.93000031  46.36000061
H     4.80793142  17.40497780  45.45379639
H     9.71000004  17.43999863  43.88999939
H    10.73999977  15.54999924  48.41999817
H     8.34999943  16.10999870  49.22000122
H     5.97000027  16.93000031  48.77999878
H     7.16000032  17.85000038  44.82999802
H    15.57000065  16.36999893  44.54000092
H     4.44999981  17.56999969  47.15999985
H     5.01999950  19.01000023  46.19999695
S    15.97000027  15.01999950  49.05000305
C    18.55999947  14.37000084  48.36999893
C    17.31999969  14.85999966  48.00000000
C    17.00000000  15.48999977  46.76000214
C    17.98999977  15.50000000  45.86000061
C    19.29999924  15.11999989  46.18000031
C    20.34000015  15.13000011  45.21999741
C    21.60000038  14.84000015  45.56999969
C    21.94999886  14.47999954  46.91999817
C    20.88000107  14.37000084  47.84000015
C    19.57999992  14.63999939  47.44999695
C    15.62999916  15.90999985  46.62000275
C    14.91000080  15.71000004  47.81999969
C    13.53999996  15.80000019  47.85999680
C    23.31999969  14.02999973  47.21000290
H    23.57631302  14.41080666  48.19863129
H    18.71999931  14.09999943  49.40999985
H    17.87999916  15.77999973  44.81999969
H    20.06999969  15.47999954  44.22000122
H    22.32000160  14.85999966  44.75000000
H    21.12999916  13.96000004  48.81000137
H    13.00000000  15.72999954  48.80000305
H    23.97999954  14.42000008  46.42000198
H    23.31999969  12.93000031  47.29999924
S    16.02000046  13.03999996  52.31999969
C    18.71000099  12.30000019  51.65999985
C    17.32999992  12.30999947  51.35000229
C    16.77000046  11.84999943  50.07999802
C    17.71999931  11.36999989  49.15000153
C    19.11999893  11.32999992  49.45999908
C    20.09000015  10.90000057  48.50999832
C    21.37000084  10.72999954  48.83999634
C    21.90000153  11.23000050  50.06999969
C    21.04999924  11.82000065  50.97999954
C    19.63000107  11.79999924  50.72000122
C    15.32999992  12.02000046  50.02999878
C    14.80000019  12.64000034  51.14999771
C    13.42000008  12.90999985  51.27999878
C    23.36999893  11.10999966  50.31000137
H    23.55609512  11.22027779  51.37832260
H    19.12999916  12.74000072  52.56000137
H    17.39999962  11.18000031  48.13000107
H    19.78000069  10.62000084  47.50999832
H    22.00000000  10.31999969  48.04999924
H    21.37000084  12.17000008  51.95000076
H    13.02000046  13.45000076  52.12999725
H    23.64000130  10.10000038  49.98000336
H    23.92999840  11.87000084  49.75000000
S    12.09000015  12.17000008  47.51999664
C     9.52000046  12.75000000  48.09999847
C    10.80000019  12.75000000  48.54000092
C    11.23000050  13.04999924  49.86000061
C    10.29999924  13.38000107  50.79000092
C     8.94999981  13.48000050  50.40999985
C     7.99000025  13.81999969  51.38999939
C     6.67999983  14.01000023  51.00999832
C     6.24000025  13.73000050  49.73999786
C     7.11999989  13.21000004  48.79000092
C     8.56000042  13.09000015  49.08000183
C    12.64999962  12.68000031  50.11000061
C    13.20000076  12.23000050  48.88000107
C    14.57999992  11.84999943  48.87000275
C     4.73000002  13.78999901  49.43000031
H     4.49422121  13.61852455  48.37971115
H     9.18000031  12.50000000  47.09999847
H    10.57000065  13.35999966  51.84000015
H     8.28999996  13.86999989  52.43000031
H     5.96000004  14.26000023  51.79000092
H     6.85999966  12.86999893  47.78999710
H    15.05000019  11.51999950  47.95000076
H     4.36999989  14.78000069  49.72000122
H     4.26000023  13.12000084  50.15999603
