96

S    12.17000008  16.72000122  44.36000061
C     9.50000000  16.81999969  44.91000366
C    10.76000023  16.46000099  45.28999710
C    11.10000038  16.10000038  46.69000244
C    10.03000069  16.03999901  47.63000107
C     8.67999935  16.35000038  47.29000092
C     7.57000017  16.23999977  48.15000153
C     6.28999996  16.69000053  47.75000000
C     6.07999992  17.14999962  46.45999908
C     7.11000013  17.17000008  45.56000137
C     8.45000076  16.81999969  45.96000290
C    12.53000069  16.02000046  46.90000153
C    13.25000000  16.35000038  45.70999908
C    14.63000107  16.46999931  45.68999863
C     4.61999989  17.48999977  46.06999969
H     4.24599648  16.90429688  45.23025513
H     9.36999989  17.10000038  43.86000061
H    10.19000053  15.77000046  48.68000031
H     7.76999998  15.78999996  49.12000275
H     5.36999989  16.47999954  48.29000092
H     6.98999977  17.32999992  44.48999786
H    15.11999989  16.73999977  44.75999832
H     3.89999986  17.30999947  46.88000107
H     4.61999989  18.53000069  45.75000000
S    15.71000004  15.17000008  49.23999786
C    18.27999878  14.73999977  48.55999756
C    17.12000084  15.21999931  48.23999786
C    16.77000046  15.73999977  46.98999786
C    17.78000069  15.92000008  46.11999893
C    19.10000038  15.43000031  46.42000198
C    20.15999985  15.51000023  45.44000244
C    21.37000084  14.92000008  45.75000000
C    21.57999992  14.22999954  46.97999954
C    20.62999916  14.21000004  47.91999817
C    19.38999939  14.78999996  47.67000198
C    15.34999943  15.97000027  46.84000015
C    14.61999989  15.62000084  47.97000122
C    13.25000000  15.70000076  48.02999878
C    22.88000107  13.67000008  47.31999969
H    23.39407349  14.33899784  48.01012421
H    18.39999962  14.21000004  49.51000214
H    17.60000038  16.29999924  45.12000275
H    19.79999924  15.81999969  44.45999908
H    22.18000031  15.03000069  45.04000092
H    20.78000069  13.73000050  48.88000107
H    12.69000053  15.39000034  48.90999603
H    23.50000000  13.48000050  46.44000244
H    22.57999802  12.72999954  47.80000305
S    15.62999916  12.38999939  52.25000000
C    18.37000084  11.87000084  51.59999847
C    17.02000046  11.87999916  51.26999664
C    16.59000015  11.54999924  49.91000366
C    17.46999931  11.21000099  48.95999908
C    18.85000038  11.23999977  49.26000214
C    19.77000046  10.69000053  48.36999893
C    21.07999992  10.59000015  48.68999863
C    21.57999992  10.88999939  49.93000031
C    20.71000099  11.40999985  50.80999756
C    19.30999947  11.47999954  50.59999847
C    15.19999981  11.90000057  49.72999954
C    14.56999969  12.39999962  50.86000061
C    13.27000046  12.89000034  50.89000320
C    23.08000183  10.62999916  50.34999847
H    23.40797806  10.96526623  51.33393478
H    18.70000076  12.28999996  52.55000305
H    17.18000031  11.10999966  47.91999817
H    19.36000061  10.19999981  47.49000168
H    21.73999977  10.24000072  47.90999985
H    21.18999863  11.82999992  51.69000244
H    12.89000034  13.15000057  51.86999893
H    23.19000053   9.53999996  50.31999969
H    23.75000000  10.95000076  49.54000092
S    11.92999935  11.72999954  47.25000000
C     9.22000027  12.30000019  47.98999786
C    10.59000015  12.31999969  48.27999878
C    10.98999977  12.71999931  49.62999725
C    10.07999992  13.10999966  50.56000137
C     8.76000023  13.26000023  50.27999878
C     7.77999973  13.60999966  51.25000000
C     6.44000006  13.63000011  50.94999695
C     6.02999973  13.22999954  49.59000015
C     6.98000002  12.79999924  48.68000031
C     8.34000015  12.81999969  48.95999908
C    12.42000008  12.60000038  49.75000000
C    13.03999996  12.03999996  48.59000397
C    14.44000053  11.77000046  48.55999756
C     4.63000011  13.61999989  49.12000275
H     4.29955530  13.20005989  48.16997147
H     8.73000050  11.82999992  47.14000320
H    10.53999996  13.23999977  51.53999710
H     8.10000038  14.01000023  52.19999695
H     5.82999992  14.22000027  51.62000275
H     6.72999954  12.51999950  47.65999603
H    14.98999977  11.36999989  47.70999908
H     4.75000000  14.70999908  49.06000137
H     4.00999975  13.35999966  49.99000168
