96

S    12.20999908  16.61999893  44.13000107
C     9.46000004  17.00000000  44.86000061
C    10.77999973  16.69999886  45.17000198
C    11.16000080  16.36999893  46.53999710
C    10.24000072  16.34000015  47.61000061
C     8.94999981  16.67000008  47.27000427
C     7.86000013  16.54999924  48.22999954
C     6.57999992  17.04000092  47.94000244
C     6.30999994  17.54999924  46.66999817
C     7.26000023  17.61999893  45.75000000
C     8.63000011  17.20999908  46.00000000
C    12.61000061  16.21999931  46.70000076
C    13.28999996  16.32999992  45.47000122
C    14.63000107  16.10000038  45.40999985
C     4.90999985  17.90999985  46.27999878
H     4.66406250  17.52742958  45.28941727
H     9.22000027  17.38000107  43.87000275
H    10.47000027  16.00000000  48.61000061
H     8.06999969  16.21999931  49.23999786
H     5.73999977  16.97999954  48.62999725
H     7.09000015  17.90999985  44.72000122
H    15.19000053  16.20000076  44.48999786
H     4.19000006  17.56999969  47.02999878
H     4.86000013  19.00000000  46.31000137
S    15.77999973  15.22999954  49.15999985
C    18.47999954  14.84000015  48.36999893
C    17.20999908  15.27999973  48.08000183
C    16.84999847  15.70000076  46.77000046
C    17.86000061  15.78999996  45.80999756
C    19.17000008  15.31000042  46.07999802
C    20.19000053  15.22999954  45.07999802
C    21.44000053  14.85999966  45.34000015
C    21.80000114  14.50000000  46.63000107
C    20.82999992  14.45000076  47.60000229
C    19.48999977  14.88000011  47.37999725
C    15.34999943  15.85000038  46.55000305
C    14.67000008  15.64000034  47.78999710
C    13.26000023  15.80000019  47.84999847
C    23.23999786  14.27000046  47.09000015
H    23.40653801  14.77655792  48.04066467
H    18.53000069  14.28999996  49.31000137
H    17.54999924  15.92000008  44.78000259
H    19.86999893  15.65000057  44.13000107
H    22.11999893  14.98000050  44.50000000
H    21.09999847  14.14000034  48.60000229
H    12.65999985  15.44999981  48.68999863
H    23.95000076  14.68000031  46.36000061
H    23.40999985  13.20000076  47.22999954
S    11.63000011  16.67000008  50.90000153
C     9.06999969  17.28999901  51.72999954
C    10.31000042  16.79999924  52.09000015
C    10.59999943  16.40999985  53.40000153
C     9.57999992  16.43000031  54.31000137
C     8.32999992  16.97000122  53.97999573
C     7.26000023  16.95999908  54.86000061
C     6.00000000  17.35000038  54.52000046
C     5.69000006  17.87999916  53.26000214
C     6.78999996  17.98999977  52.38999939
C     8.06999969  17.43999863  52.68000031
C    12.05000019  16.20000076  53.47999954
C    12.71000004  16.44000053  52.25000000
C    14.11000061  16.54000092  52.15999985
C     4.26000023  18.22999954  52.84999847
H     3.92303991  17.54891014  52.06854248
H     8.97999954  17.80999947  50.77999878
H     9.70000076  15.93999958  55.27999878
H     7.36000013  16.40999985  55.79000092
H     5.14999962  17.12000084  55.14999771
H     6.69000053  18.35000038  51.37000275
H    14.51000023  16.57999992  51.14999771
H     3.53999996  18.19000053  53.68000031
H     4.30000019  19.27000046  52.50999832
S    15.14000034  15.62000084  55.84999847
C    17.77000046  15.25000000  55.19000244
C    16.54999924  15.69000053  54.78000259
C    16.27000046  15.98999977  53.40000153
C    17.35000038  16.09000015  52.56999969
C    18.60999870  15.69000053  52.95000076
C    19.70000076  15.59999943  51.97999954
C    20.85000038  15.06999969  52.36999893
C    21.05999947  14.67000008  53.70999908
C    20.12000084  14.86999989  54.72999954
C    18.86999893  15.36000061  54.31999969
C    14.86999989  16.26000023  53.29000092
C    14.14000034  15.93000031  54.51000214
C    12.76000023  15.85999966  54.58000183
C    22.42000198  14.19000053  54.13999939
H    22.84786415  14.83179474  54.91015244
H    17.82999992  14.86999989  56.20999908
H    17.25000000  16.34000015  51.51000214
H    19.61000061  15.85999966  50.93000031
H    21.60000038  15.05000019  51.58000183
H    20.40999985  14.63999939  55.76000214
H    12.30999947  15.59000015  55.52999878
H    23.08000183  14.19999981  53.26000214
H    22.46000099  13.15999985  54.52000046
