96

S    12.88000011  16.77000046  44.29999924
C    10.19000053  17.13000107  45.00999832
C    11.46000004  16.84000015  45.34000015
C    11.79999924  16.57999992  46.75000000
C    10.77000046  16.45000076  47.71999741
C     9.46000004  16.70999908  47.36000061
C     8.38999939  16.38000107  48.25000000
C     7.05999947  16.65999985  47.88000107
C     6.74000025  17.20000076  46.58000183
C     7.82999992  17.34000015  45.65999985
C     9.18000031  17.02999878  45.98999786
C    13.23999977  16.39000130  46.88000107
C    13.89999962  16.46000099  45.66999817
C    15.24000072  16.26000023  45.61999893
C     5.29999971  17.56999969  46.19999695
H     4.92872477  16.92026901  45.40746689
H     9.89000034  17.45000076  44.01000214
H    11.10999966  15.92000008  48.61000061
H     8.61999989  15.98000050  49.22999954
H     6.26999950  16.31000137  48.54000092
H     7.64999962  17.70000076  44.65000153
H    15.82999992  16.21999931  44.71000290
H     4.63000011  17.53999901  47.06999969
H     5.23000002  18.60999870  45.84999847
S    16.28000069  15.60999966  49.45000076
C    18.96000099  14.88000011  48.74000168
C    17.68000031  15.39000034  48.39000320
C    17.30999947  15.78999996  47.04999924
C    18.27000046  15.65999985  46.07999802
C    19.60000038  15.27999973  46.38000107
C    20.59000015  15.36000061  45.38999939
C    21.87999916  14.98000050  45.65999985
C    22.14999962  14.51000023  46.97000122
C    21.18000031  14.27999973  47.88999939
C    19.89999962  14.78999996  47.68000031
C    15.95000076  16.05999947  46.81999969
C    15.26000023  15.98999977  48.04999924
C    13.88000011  16.02000046  48.06000137
C    23.57000160  14.19000053  47.31999969
H    23.75356483  14.38090897  48.37733459
H    19.22000122  14.75999928  49.79000092
H    17.95999908  15.84000015  45.05000305
H    20.42000008  15.92000008  44.47000122
H    22.60000038  15.14000034  44.86999893
H    21.42999840  14.04000092  48.93000031
H    13.30000019  15.88999939  48.96999741
H    24.26000214  14.78999996  46.70999908
H    23.81999969  13.15999985  47.05999756
S    15.85000038  12.86000061  52.35000229
C    18.43000031  12.15000057  51.59000015
C    17.13999939  12.20999908  51.29000092
C    16.65999985  11.89000034  49.99000168
C    17.56000137  11.56999969  49.01000214
C    18.95000076  11.54999924  49.33000183
C    19.86999893  11.18999958  48.33000183
C    21.22999954  10.93999958  48.61999893
C    21.68000031  11.18000031  49.93999863
C    20.79999924  11.71000004  50.89000320
C    19.36000061  11.85999966  50.63000107
C    15.26999950  12.17000008  49.82999802
C    14.70999908  12.76000023  51.00000000
C    13.38999939  13.27999973  51.04000092
C    23.12999916  10.77999973  50.35999680
H    23.30227470  10.94478416  51.42360687
H    18.70000076  12.27000046  52.63999939
H    17.21999931  11.17000008  48.06000137
H    19.48999977  10.98999977  47.32999802
H    21.91999817  10.65999985  47.81999969
H    21.11999893  11.69000053  51.93000031
H    13.12999916  13.86000061  51.91999817
H    23.32999992   9.72000027  50.15999603
H    23.88999939  11.31000042  49.79000092
S    11.87999916  12.17000008  47.43000031
C     9.27999973  12.84000015  48.20000076
C    10.62999916  12.82999992  48.47999954
C    11.17000008  13.27000046  49.75000000
C    10.25000000  13.60000038  50.72999954
C     8.85999966  13.78000069  50.47000122
C     7.90999985  14.15999985  51.53999710
C     6.56000042  14.09000015  51.20999908
C     6.11999989  13.73999977  49.86999893
C     7.00999975  13.27999973  48.93000031
C     8.38000011  13.38000107  49.22999954
C    12.61999989  13.12000084  49.87999725
C    13.17999935  12.53999901  48.68000031
C    14.55000019  12.20000076  48.62999725
C     4.63999987  13.96999931  49.56999969
H     4.43898010  13.62007713  48.55745697
H     8.80000019  12.22000027  47.44999695
H    10.73999977  13.90999985  51.65999985
H     8.13000011  14.45000076  52.56999969
H     5.88000011  14.37000084  52.01000214
H     6.77999973  12.79999924  47.97999954
H    14.98000050  11.79999924  47.70999908
H     4.42999983  15.05000019  49.55999756
H     4.00999975  13.40999985  50.26000214
