96

S    12.90999985  16.57999992  44.45999908
C    10.19999981  16.81999969  45.05000305
C    11.46999931  16.46000099  45.48999786
C    11.85999966  16.14999962  46.86000061
C    10.80999947  16.06999969  47.74000168
C     9.47000027  16.21000099  47.31999969
C     8.46000004  16.25000000  48.34000015
C     7.18999958  16.56999969  48.01000214
C     6.90999985  17.04000092  46.69000244
C     7.83999968  17.13999939  45.73999786
C     9.17000008  16.68000031  46.00000000
C    13.35000038  16.10999870  47.01000214
C    14.01000023  16.17000008  45.76000214
C    15.40999985  16.05999947  45.65000153
C     5.59000015  17.56000137  46.32999802
H     5.08644676  16.96552658  45.56767654
H     9.98000050  17.19000053  44.06000137
H    11.03000069  15.85000038  48.77999878
H     8.84000015  16.21999931  49.36000061
H     6.51000023  16.65999985  48.85000229
H     7.59000015  17.71999931  44.85000229
H    15.86999989  16.13999939  44.66999817
H     4.99000025  17.39999962  47.23999786
H     5.59999990  18.63000107  46.12999725
S    16.55999947  15.13000011  49.38999939
C    19.26000023  15.00000000  48.70999908
C    17.95999908  15.43000031  48.36000061
C    17.60000038  15.84000015  47.01000214
C    18.54999924  15.92000008  46.02000427
C    19.85999870  15.46000004  46.31999969
C    20.88999939  15.60999966  45.34000015
C    22.13999939  15.14999962  45.48999786
C    22.46000099  14.61999989  46.77000046
C    21.48999977  14.40999985  47.75000000
C    20.17999840  14.94999981  47.60000229
C    16.11999893  15.90999985  46.90000153
C    15.42000008  15.75000000  48.13000107
C    14.06999969  15.93999958  48.20000076
C    23.81999969  14.21000004  47.12999725
H    24.10461998  14.77212620  48.01943970
H    19.50000000  14.52000046  49.65000153
H    18.30999947  16.13000107  44.98000336
H    20.65000153  16.25000000  44.50000000
H    22.84000015  15.31999969  44.68000031
H    21.68999863  13.86000061  48.67000198
H    13.52000046  15.80999947  49.13000107
H    24.59000015  14.37999916  46.37000275
H    23.77000046  13.14000034  47.36999893
S    12.05000019  17.02000046  50.98999786
C     9.35999966  17.32999992  51.72999954
C    10.59999943  17.06999969  52.09000015
C    10.88000107  16.64999962  53.43000031
C     9.86999989  16.50000000  54.36999893
C     8.52000046  16.72000122  53.89999771
C     7.44000006  16.65999985  54.86000061
C     6.17999983  16.92000008  54.40999985
C     5.96000004  17.38999939  53.06000137
C     7.00000000  17.57999992  52.15999985
C     8.27000046  17.14999962  52.56000137
C    12.35000038  16.52000046  53.64999771
C    13.12000084  16.61000061  52.42000198
C    14.46000004  16.44000053  52.29999924
C     4.59999990  17.93000031  52.72999573
H     4.09323931  17.28049088  52.01625061
H     9.19000053  17.63000107  50.70000076
H    10.05000019  16.27000046  55.40999985
H     7.63999987  16.44000053  55.90000153
H     5.35000038  16.79000092  55.08999634
H     6.90000010  18.13999939  51.24000168
H    14.85999966  16.40999985  51.29000092
H     4.00999975  17.94000053  53.66000366
H     4.65000010  18.95000076  52.31999969
S    15.40999985  15.38000011  55.94999695
C    18.15999985  14.89999962  55.28999710
C    16.88999939  15.34000015  54.94999695
C    16.68000031  15.92000008  53.64999771
C    17.79000092  15.98999977  52.75000000
C    19.04999924  15.46000004  53.09000015
C    20.15999985  15.46000004  52.15999985
C    21.35000038  14.88999939  52.56999969
C    21.56999969  14.44000053  53.88000107
C    20.55999947  14.50000000  54.81999969
C    19.27999878  14.94999981  54.43000031
C    15.21000004  16.20000076  53.47000122
C    14.40999985  16.03999901  54.66999817
C    13.07999992  16.23999977  54.80999756
C    22.93000031  14.04000092  54.33000183
H    23.33053207  14.61218929  55.16682816
H    18.22999954  14.37000084  56.24000168
H    17.69000053  16.27000046  51.70999908
H    20.00000000  15.90000057  51.18000031
H    22.20999908  14.93999958  51.90999985
H    20.75000000  14.15999985  55.84000015
H    12.61000061  16.05999947  55.76000214
H    23.57000160  13.97999954  53.43999863
H    22.86999893  13.02999973  54.73999786
