96

S    12.02999973  16.29999924  44.41999817
C     9.50000000  16.60000038  45.18000031
C    10.67999935  16.13000107  45.45000076
C    11.05000019  15.70000076  46.75000000
C    10.11999989  15.71000004  47.75000000
C     8.82999992  16.20000076  47.47000122
C     7.72000027  16.04999924  48.36000061
C     6.46000004  16.39999962  48.06999969
C     6.14000034  17.02000046  46.81999969
C     7.11999989  17.13000107  45.90000153
C     8.47999954  16.72000122  46.11999893
C    12.46999931  15.55999947  46.81000137
C    13.15999985  15.93000031  45.65999985
C    14.48999977  16.03999901  45.54999924
C     4.67000008  17.28999901  46.39999771
H     4.39368677  16.59567451  45.60648346
H     9.34000015  16.98999977  44.18000031
H    10.36000061  15.06999969  48.60000229
H     7.88999987  15.62999916  49.34000015
H     5.69999981  16.26000023  48.83999634
H     6.93000031  17.38999939  44.86000061
H    14.93000031  16.31000137  44.59000015
H     4.01999998  17.11000061  47.27000427
H     4.51000023  18.34000015  46.11000061
S    15.69000053  14.70999908  49.09000015
C    18.35000038  14.50000000  48.27000046
C    17.12000084  14.96999931  48.02000046
C    16.76000023  15.50000000  46.77999878
C    17.78000069  15.62000084  45.76000214
C    19.13999939  15.26000023  46.05999756
C    20.17999840  15.32999992  45.14999771
C    21.42000008  14.89999962  45.52999878
C    21.70999908  14.40999985  46.81000137
C    20.69999886  14.22000027  47.69000244
C    19.34999847  14.65999985  47.35000229
C    15.29999924  15.67000008  46.63999939
C    14.61999989  15.14999962  47.77000046
C    13.22999954  15.18000031  47.95999908
C    23.12000084  14.09000015  47.18000031
H    23.42043114  14.60003376  48.09526443
H    18.53999901  13.99000072  49.20999908
H    17.53999901  15.85000038  44.72999954
H    20.00999832  15.59000015  44.10999680
H    22.23999977  14.88000011  44.82999802
H    20.72999954  13.83999920  48.70999908
H    12.64999962  14.80000019  48.80000305
H    23.78000069  14.30999947  46.33999634
H    23.18000031  12.98999977  47.18000031
S    11.95000076  16.39000130  50.91999817
C     9.35000038  17.07999992  51.62000275
C    10.55999947  16.57999992  51.95999908
C    10.85999966  16.21999931  53.30999756
C     9.81999969  16.18000031  54.23999786
C     8.59000015  16.73999977  53.99000168
C     7.44999981  16.73999977  54.87999725
C     6.17000008  17.05999947  54.45999908
C     5.97000027  17.50000000  53.16999817
C     7.03999996  17.52000046  52.29999924
C     8.38000011  17.20000076  52.63999939
C    12.35000038  16.07999992  53.47999954
C    13.05999947  16.13000107  52.25999832
C    14.44000053  16.22999954  52.15999985
C     4.55999994  17.98999977  52.81999969
H     4.11745977  17.51980019  51.94183731
H     9.06999969  17.27000046  50.59000015
H    10.03999901  15.64000034  55.15999603
H     7.59000015  16.38000107  55.90000153
H     5.31000042  17.05999947  55.12000275
H     6.84000015  17.80999947  51.26999664
H    14.96999931  16.27000046  51.20999908
H     3.86000013  17.79000092  53.63999939
H     4.53999996  19.06999969  52.63000107
S    15.54999924  15.59999943  55.90000153
C    18.07999992  15.38000011  55.20999908
C    16.81999969  15.69000053  54.81999969
C    16.51000023  15.90999985  53.46000290
C    17.52000046  15.86999989  52.47000122
C    18.79999924  15.70000076  52.88000107
C    19.80999947  15.59999943  51.91999817
C    21.09000015  15.18000031  52.19999695
C    21.38000107  14.89999962  53.52000427
C    20.38000107  14.88000011  54.47999954
C    19.10000038  15.29999924  54.20000076
C    15.13000011  16.01000023  53.33000183
C    14.46000004  15.85000038  54.55999756
C    13.04999924  15.95000076  54.65999985
C    22.70999908  14.46000004  53.94000244
H    22.94953918  14.72131634  54.97074890
H    18.22000122  14.91000080  56.18000031
H    17.32999992  15.88999939  51.39999771
H    19.60000038  15.71000004  50.86000061
H    21.80000114  15.03000069  51.38999939
H    20.63999939  14.59000015  55.48999786
H    12.64000034  15.67000008  55.61999893
H    23.39999962  14.85999966  53.18000031
H    22.70000076  13.36999989  53.79000092
