96

S    12.05999947  16.67000008  44.09000015
C     9.35999966  17.09000015  44.86999893
C    10.69000053  16.73999977  45.18000031
C    11.05999947  16.36000061  46.55000305
C    10.07999992  16.36000061  47.54000092
C     8.80999947  16.79000092  47.23999786
C     7.77999973  16.97000122  48.22999954
C     6.44000006  17.18000031  47.90999985
C     6.05999994  17.51000023  46.59000015
C     7.03000021  17.28999901  45.61000061
C     8.38999939  17.07999992  45.89000320
C    12.51000023  16.05999947  46.63999939
C    13.19000053  16.29999924  45.43000031
C    14.57999992  16.43000031  45.40999985
C     4.61000013  17.82999992  46.23000336
H     4.31417465  17.39365768  45.27596283
H     9.06999969  17.20000076  43.82999802
H    10.39999962  16.13999939  48.55999756
H     8.09000015  16.75000000  49.25000000
H     5.73999977  17.10000038  48.73000336
H     6.78999996  17.34000015  44.54999924
H    15.07999992  16.68000031  44.47999954
H     3.93000007  17.46999931  47.01000214
H     4.39000034  18.90999985  46.26999664
S    15.65000057  15.15999985  49.08000183
C    18.27000046  14.85000038  48.27999878
C    17.07999992  15.40999985  48.04999924
C    16.75000000  16.04999924  46.73999786
C    17.71999931  16.10999870  45.80999756
C    19.04000092  15.70000076  46.12999725
C    20.12000084  15.72999954  45.19000244
C    21.34000015  15.14000034  45.41999817
C    21.61000061  14.63999939  46.70999908
C    20.62999916  14.57999992  47.63000107
C    19.31999969  15.05000019  47.37999725
C    15.31999969  16.13999939  46.56999969
C    14.60999966  15.73999977  47.70000076
C    13.20000076  15.72999954  47.77999878
C    23.02999878  14.35999966  47.14000320
H    23.33430290  15.01207638  47.95871735
H    18.61999893  14.25000000  49.12000275
H    17.53000069  16.28999901  44.75999832
H    20.05000114  16.35000038  44.29999924
H    22.11000061  15.36999893  44.68999863
H    20.88999939  14.39000034  48.67000198
H    12.69000053  15.48999977  48.70999908
H    23.78999901  14.44000053  46.35000229
H    23.00000000  13.28999996  47.36999893
S    12.03999996  17.20999908  50.83000183
C     9.44999981  17.52000046  51.70000076
C    10.67000008  17.02999878  51.98999786
C    11.13999939  16.55999947  53.22000122
C    10.18000031  16.39999962  54.20000076
C     8.86999989  16.72000122  54.02000046
C     7.95000029  16.56999969  55.00999832
C     6.67999983  17.12000084  54.87999725
C     6.34999990  17.68000031  53.63999939
C     7.25000000  17.98999977  52.70000076
C     8.55000019  17.45000076  52.80000305
C    12.55000019  16.35000038  53.27999878
C    13.21000004  16.73999977  52.09000015
C    14.60000038  16.62999916  52.08000183
C     4.96000004  18.20000076  53.31999969
H     4.59551287  17.65684319  52.44808960
H     9.19000053  17.92000008  50.72999954
H    10.52000046  16.06999969  55.18000031
H     8.27000046  16.14999962  55.96000290
H     5.97000027  17.17000008  55.70000076
H     6.94999981  18.63999939  51.88000107
H    15.19000053  16.94000053  51.22000122
H     4.28000021  18.09999847  54.16999817
H     5.01999950  19.27000046  53.09999847
S    15.64000034  15.43000031  55.76000214
C    18.20999908  14.85999966  54.95999908
C    17.02999878  15.44000053  54.68999863
C    16.69999886  16.07999992  53.43999863
C    17.71999931  16.22999954  52.52999878
C    19.07999992  15.72000027  52.83000183
C    20.20999908  15.95999908  51.95000076
C    21.45999908  15.69000053  52.35000229
C    21.71999931  14.93000031  53.54999924
C    20.59999847  14.75000000  54.38999939
C    19.30999947  15.07999992  54.09999847
C    15.29000092  16.28999901  53.29000092
C    14.59000015  16.07999992  54.47000122
C    13.23999977  16.07999992  54.50000000
C    23.09000015  14.59000015  54.01000214
H    23.41345024  15.04705048  54.94519424
H    18.31999969  14.37000084  55.93000031
H    17.56999969  16.67000008  51.55000305
H    19.93000031  16.68000031  51.18999863
H    22.29999924  16.14999962  51.81999969
H    20.81999969  14.34000015  55.38000107
H    12.71000004  15.88999939  55.41999817
H    23.71999931  15.03000069  53.22000122
H    23.19000053  13.50999928  54.15000153
