96

S    11.92999935  16.61999893  44.08000183
C     9.21000004  16.90999985  44.82999802
C    10.54999924  16.46999931  45.15999603
C    10.90000057  16.13999939  46.52999878
C     9.94999981  16.02000046  47.44999695
C     8.61999989  16.38000107  47.15999985
C     7.63000011  16.45000076  48.18999863
C     6.28999996  16.80999947  47.88000107
C     5.97000027  17.38000107  46.59000015
C     6.98999977  17.40999985  45.61999893
C     8.27000046  16.87999916  45.86999893
C    12.32999992  16.11999893  46.73999786
C    12.97999954  16.31999969  45.45999908
C    14.35999966  16.20000076  45.37000275
C     4.56999969  17.82999992  46.17000198
H     4.13862514  17.27640152  45.33600998
H     9.07999992  17.52000046  43.94000244
H    10.19000053  15.88000107  48.50999832
H     7.99000025  16.21000099  49.18000031
H     5.64000034  16.77000046  48.75000000
H     6.85999966  17.82999992  44.61999893
H    14.82999992  16.50000000  44.43999863
H     3.91000009  17.68000031  47.02999878
H     4.63000011  18.89999962  45.93000031
S    15.51000023  15.06000042  49.05000305
C    18.18000031  14.57999992  48.29999924
C    16.90000153  15.06999969  47.98999786
C    16.56999969  15.57999992  46.66999817
C    17.60000038  15.65000057  45.77000046
C    18.92000008  15.25000000  46.05999756
C    19.93000031  15.21000004  45.06000137
C    21.17000198  14.75999928  45.33000183
C    21.54999924  14.34999943  46.63999939
C    20.59000015  14.32000065  47.65999603
C    19.26000023  14.67000008  47.35000229
C    15.11999989  15.85999966  46.51000214
C    14.42999935  15.62999916  47.78999710
C    13.05999947  15.77999973  47.88999939
C    23.02999878  13.94999981  46.93999863
H    23.38721275  14.50332928  47.80851746
H    18.29000092  14.04999924  49.23999786
H    17.34000015  15.97000027  44.75999832
H    19.64999962  15.48999977  44.03999710
H    21.94999886  14.73000050  44.56999969
H    20.90999985  13.99000072  48.63999939
H    12.43999958  15.46000004  48.73000336
H    23.64000130  14.06000042  46.03000259
H    22.98999977  12.88000011  47.18999863
S    15.85000038  12.23000050  52.27000427
C    18.45999908  11.84000015  51.45999908
C    17.13000107  11.72000027  51.17000198
C    16.65999985  11.31999969  49.93000031
C    17.53999901  11.03000069  48.89999771
C    18.90999985  11.18000031  49.15999985
C    19.98999977  10.76000023  48.23999786
C    21.31999969  10.85999966  48.60000229
C    21.77999878  11.36999989  49.86000061
C    20.81999969  11.78999996  50.72000122
C    19.44000053  11.59999943  50.41999817
C    15.24000072  11.68000031  49.80999756
C    14.63000107  12.05999947  51.00000000
C    13.22000027  12.38000011  51.04000092
C    23.26999855  11.44999981  50.18000031
H    23.55728531  10.81797695  51.02030563
H    18.65999985  12.06999969  52.50000000
H    17.05999947  10.69000053  47.97999954
H    19.65999985  10.29000092  47.31999969
H    22.03000069  10.50000000  47.85999680
H    21.07000160  12.15999985  51.70999908
H    12.69000053  12.63000011  51.95000076
H    23.78000069  11.05000019  49.29000092
H    23.55999947  12.48999977  50.38999939
S    11.90000057  11.97000027  47.25000000
C     9.28999996  12.69999981  48.02000046
C    10.65999985  12.51000023  48.30999756
C    11.09000015  12.60000038  49.68000031
C    10.11999989  12.76999950  50.59999847
C     8.82999992  13.19000053  50.37000275
C     7.99000025  13.73000050  51.38000107
C     6.65000010  14.02999973  51.10000229
C     6.15000010  13.67000008  49.81999969
C     7.00000000  13.27000046  48.77999878
C     8.36000061  13.01000023  49.01000214
C    12.51000023  12.28000069  49.85000229
C    13.12000084  11.96000004  48.59000397
C    14.48999977  11.63000011  48.62999725
C     4.74000025  14.04000092  49.59999847
H     4.49849606  13.68119431  48.59948349
H     8.88000011  12.50000000  47.04000092
H    10.44000053  12.65999985  51.63000107
H     8.45000076  13.89999962  52.35000229
H     5.95000029  14.32000065  51.88000107
H     6.74000025  13.17000008  47.72999573
H    15.01999950  11.25000000  47.76000214
H     4.76000023  15.14000034  49.56999969
H     4.11000013  13.55000019  50.34999847
