96

S    12.38000011  16.65999985  44.06999969
C     9.72000027  17.30999947  44.86999893
C    11.00000000  16.65999985  45.17000198
C    11.23999977  16.09000015  46.45000076
C    10.29000092  16.04999924  47.42000198
C     8.98999977  16.61999893  47.16999817
C     7.95000029  16.62999916  48.09999847
C     6.70000029  17.15999985  47.84000015
C     6.42000008  17.63000107  46.51000214
C     7.36000013  17.61999893  45.54000092
C     8.69999981  17.21999931  45.87999725
C    12.64000034  15.90000057  46.59000015
C    13.34000015  16.18000031  45.35999680
C    14.72000027  16.18000031  45.27999878
C     4.92999983  17.94999886  46.12999725
H     4.55975533  17.27936745  45.35457993
H     9.55999947  17.87999916  43.95999908
H    10.53999996  15.43000031  48.27999878
H     8.23999977  16.18999863  49.05000305
H     5.92000008  17.13000107  48.60000229
H     7.04999971  17.92000008  44.54000092
H    15.26999950  16.60000038  44.43999863
H     4.23000002  17.87999916  46.95999908
H     4.82999992  18.98999977  45.79999924
S    15.81999969  15.00000000  48.95000076
C    18.53000069  14.68000031  48.18999863
C    17.22999954  15.18000031  47.90999985
C    16.88999939  15.67999935  46.59000015
C    17.97000122  15.85999966  45.66999817
C    19.26000023  15.44000053  45.98999786
C    20.20999908  15.36999893  44.98000336
C    21.47999954  14.93000031  45.28999710
C    21.83000183  14.42999935  46.53999710
C    20.88000107  14.40999985  47.47000122
C    19.55000114  14.86999989  47.22999954
C    15.44999981  15.78999996  46.38999939
C    14.73999977  15.43000031  47.60000229
C    13.34000015  15.44000053  47.68000031
C    23.31999969  14.22999954  46.86999893
H    23.49671555  14.69868088  47.83809662
H    18.68000031  13.99000072  49.02000046
H    17.81999969  16.13000107  44.62999725
H    19.93999863  15.72999954  43.99000168
H    22.27000046  15.14999962  44.58000183
H    21.12999916  14.07999992  48.47999954
H    12.81000042  15.10000038  48.56999969
H    23.85000038  14.77000046  46.07999802
H    23.61999893  13.17000008  46.88000107
S    12.39999962  16.54000092  50.98999786
C     9.68999958  16.97000122  51.55000305
C    10.93999958  16.40999985  51.90999985
C    11.19999981  15.90999985  53.22999954
C    10.14000034  15.88999939  54.03999710
C     8.86999989  16.40999985  53.68000031
C     7.81000042  16.56999969  54.61999893
C     6.58999968  17.06999969  54.29000092
C     6.25999975  17.50000000  52.97000122
C     7.27999973  17.50000000  51.98999786
C     8.53999996  16.93000031  52.36000061
C    12.64000034  15.73999977  53.50000000
C    13.35999966  16.00000000  52.25000000
C    14.73999977  16.09000015  52.19999695
C     4.90000010  17.81999969  52.50000000
H     4.46037054  17.24564552  51.68455887
H     9.56999969  17.53999901  50.63000107
H    10.34000015  15.60999966  55.06999969
H     7.99000025  16.20000076  55.63000107
H     5.78000021  17.13999939  55.00999832
H     7.09000015  17.87999916  50.98999786
H    15.21999931  16.26000023  51.24000168
H     4.23000002  17.82999992  53.36999893
H     4.97000027  18.85000038  52.11999893
S    15.93999958  15.50000000  55.93000031
C    18.53999901  14.86999989  55.14999771
C    17.21999931  15.25000000  54.86999893
C    16.87000084  15.57999992  53.52000427
C    17.86000061  15.52999973  52.55000305
C    19.18000031  15.13000011  52.83000183
C    20.15000153  15.05000019  51.86000061
C    21.50000000  14.78999996  52.15999985
C    21.86000061  14.65999985  53.54999924
C    20.85000038  14.60999966  54.51000214
C    19.55000114  14.85000038  54.16999817
C    15.44000053  15.81999969  53.40999985
C    14.73000050  15.78999996  54.59999847
C    13.38000107  15.72999954  54.68999863
C    23.29999924  14.40999985  54.02999878
H    23.52631187  14.91213036  54.97060776
H    18.86000061  14.81999969  56.18000031
H    17.79999924  15.78999996  51.49000168
H    19.80999947  15.27999973  50.84999847
H    22.09000015  14.63999939  51.25999832
H    21.18000031  14.42000008  55.52999878
H    12.84999943  15.62000084  55.63000107
H    23.97999954  14.93999958  53.36000061
H    23.55999947  13.34000015  53.97999573
