96

S    12.28000069  16.69000053  43.88999939
C     9.57999992  17.04000092  44.62999725
C    10.90999985  16.69999886  44.97000122
C    11.30000019  16.20000076  46.25000000
C    10.26999950  16.10999870  47.22999954
C     9.06000042  16.75000000  46.97999954
C     8.01999950  16.60000038  47.88000107
C     6.77999973  16.93000031  47.61000061
C     6.38999987  17.51000023  46.40999603
C     7.30999994  17.53000069  45.41999817
C     8.64000034  17.13000107  45.68000031
C    12.65999985  15.92000008  46.38999939
C    13.35999966  16.26000023  45.22999573
C    14.75000000  16.28999901  45.21999741
C     4.92000008  17.73999977  46.18000031
H     4.53821087  17.21680832  45.30329895
H     9.13999939  17.21999931  43.64999771
H    10.42000008  15.47000027  48.09999847
H     8.21000004  15.98999977  48.75999832
H     6.00000000  16.43000031  48.18000031
H     7.14999962  17.85000038  44.38999939
H    15.34000015  16.53000069  44.34000015
H     4.39000034  17.35999870  47.05999756
H     4.77999973  18.82999992  46.09000397
S    15.76000023  15.31999969  48.87000275
C    18.50000000  15.14000034  48.20999908
C    17.27000046  15.39999962  47.85999680
C    16.92000008  15.81999969  46.51000214
C    17.84000015  15.77999973  45.52999878
C    19.15999985  15.42000008  45.87999725
C    20.25000000  15.38000011  44.85000229
C    21.54999924  14.88999939  45.27000046
C    21.77999878  14.53999996  46.59999847
C    20.71000099  14.46000004  47.52999878
C    19.45999908  15.03999901  47.25999832
C    15.44999981  15.95000076  46.33999634
C    14.70999908  15.59999943  47.47000122
C    13.34000015  15.47999954  47.50000000
C    23.19000053  14.07999992  46.98999786
H    23.58031464  14.60042000  47.86459351
H    18.76000023  14.70999908  49.18000031
H    17.45000076  15.93999958  44.52999878
H    20.09000015  15.59999943  43.80000305
H    22.34999847  14.75000000  44.54999924
H    20.72000122  13.81000042  48.40000153
H    12.88000011  15.31999969  48.47000122
H    23.85999870  14.37999916  46.17000198
H    23.22000122  13.01000023  47.22999954
S    15.84000015  12.84000015  51.98999786
C    18.50000000  12.18999958  51.49000168
C    17.15999985  12.25000000  51.03000259
C    16.84999847  11.92999935  49.72999954
C    17.88999939  11.64999962  48.86000061
C    19.25000000  11.50000000  49.26000214
C    20.17000008  10.77000046  48.43999863
C    21.47000122  10.48999977  48.82999802
C    21.84000015  10.98999977  50.10000229
C    20.92000008  11.59999943  51.00999832
C    19.57999992  11.75000000  50.59000015
C    15.39999962  12.11999989  49.51000214
C    14.80999947  12.77999973  50.63999939
C    13.55000019  13.31999969  50.59999847
C    23.29999924  10.69000053  50.47999954
H    23.64258194  11.30525208  51.31198502
H    18.75000000  12.53000069  52.49000168
H    17.63000107  11.31999969  47.85999680
H    19.85999870  10.43000031  47.44999695
H    22.04999924   9.82999992  48.18999863
H    21.07000160  11.72000027  52.08000183
H    13.12999916  13.97999954  51.36000061
H    23.43000031   9.61000061  50.65000153
H    23.90999985  10.86999989  49.58000183
S    11.97000027  11.54000092  47.38999939
C     9.44000053  12.46999931  48.02999878
C    10.76000023  12.38999939  48.40000153
C    11.23999977  13.12999916  49.52000046
C    10.31999969  13.61999989  50.45999908
C     8.92000008  13.47000027  50.27999878
C     7.97999954  14.07999992  51.13999939
C     6.65999985  14.21000004  50.77000046
C     6.21000004  13.75000000  49.50000000
C     7.03999996  13.10999966  48.68999863
C     8.43999958  12.92000008  49.02000046
C    12.69999981  12.92000008  49.54999924
C    13.21000004  12.11999989  48.52000427
C    14.55000019  11.82000065  48.43000031
C     4.76000023  14.01999950  49.13999939
H     4.48206282  13.63235092  48.15990829
H     9.15999985  12.06999969  47.05999756
H    10.67999935  14.11999893  51.36000061
H     8.34000015  14.60999966  52.02000046
H     6.05000019  14.77000046  51.46999741
H     6.65000010  12.75000000  47.74000168
H    14.80000019  11.25000000  47.54000092
H     4.75000000  15.11000061  49.02999878
H     4.13999987  13.67000008  49.98000336
