96

S    12.43999958  16.35000038  44.26000214
C     9.85000038  16.69999886  44.93999863
C    11.05999947  16.28999901  45.34000015
C    11.33999920  15.81999969  46.70000076
C    10.26000023  15.77999973  47.61000061
C     8.97999954  16.22999954  47.21000290
C     7.94000053  16.21999931  48.15000153
C     6.77999973  16.84999847  47.88999939
C     6.53999996  17.26000023  46.55000305
C     7.48000050  17.10000038  45.54000092
C     8.73000050  16.65999985  45.84999847
C    12.75000000  15.59000015  46.77999878
C    13.52000046  15.80999947  45.56999969
C    14.86999989  15.84000015  45.52000046
C     5.25000000  17.72999954  46.11000061
H     4.76165962  16.88258553  45.62884140
H     9.77000046  17.05999947  43.92000198
H    10.43000031  15.43000031  48.61999893
H     8.25000000  15.85000038  49.13000107
H     6.01999998  16.79000092  48.66000366
H     7.25000000  17.46000099  44.54000092
H    15.44999981  16.11999893  44.64000320
H     4.61000013  18.02000046  46.95999908
H     5.32000017  18.53999901  45.37000275
S    15.95999908  15.17000008  49.29000092
C    18.71999931  15.27999973  48.46000290
C    17.34000015  15.44999981  48.18999863
C    16.97999954  15.65999985  46.84999847
C    17.89999962  15.75000000  45.84999847
C    19.27000046  15.64000034  46.09000397
C    20.30999947  15.93000031  45.12000275
C    21.63999939  15.59000015  45.40000153
C    21.97000122  15.18000031  46.70000076
C    21.04000092  15.19000053  47.75000000
C    19.68000031  15.40999985  47.44999695
C    15.57999992  15.62000084  46.66999817
C    14.86999989  15.38000011  47.85999680
C    13.48999977  15.42000008  47.97999954
C    23.35000038  14.75000000  47.15000153
H    23.58852196  14.94643021  48.19528580
H    18.92000008  15.08999920  49.51000214
H    17.48999977  15.98999977  44.87999725
H    20.13999939  16.22999954  44.09000015
H    22.29999924  15.54999924  44.54000092
H    21.38000107  15.03000069  48.76999664
H    12.98999977  15.36999893  48.94000244
H    23.97999954  15.31000042  46.45000076
H    23.61000061  13.71000099  46.91999817
S    12.01000023  16.60000038  50.97000122
C     9.25000000  16.97000122  51.59000015
C    10.53999996  16.57999992  51.97000122
C    10.81999969  16.10000038  53.30999756
C     9.72000027  15.97000027  54.19000244
C     8.38999939  16.31000137  53.81000137
C     7.32999992  16.38000107  54.79999924
C     6.14000034  17.05999947  54.48999786
C     5.82000017  17.32999992  53.09999847
C     6.80000019  17.23999977  52.15000153
C     8.13000011  16.87000084  52.52999878
C    12.28000069  15.90000057  53.48999786
C    13.02000046  16.17000008  52.29000092
C    14.42000008  16.07999992  52.27000427
C     4.48000002  17.88999939  52.75000000
H     4.06537724  17.22517395  51.99224472
H     9.09000015  17.31999969  50.56999969
H     9.92999935  15.47000027  55.13999939
H     7.59000015  16.13000107  55.83000183
H     5.51000023  17.43999863  55.28999710
H     6.56000042  17.53000069  51.13999939
H    14.88999939  16.47999954  51.37000275
H     3.82999992  18.17000008  53.59000397
H     4.67000008  18.90999985  52.36999893
S    15.34999943  15.26000023  55.98999786
C    18.11000061  15.17000008  55.33000183
C    16.77999878  15.43000031  54.95999908
C    16.51000023  15.78999996  53.61000061
C    17.52000046  16.01000023  52.71999741
C    18.86999893  15.72999954  53.02999878
C    19.88000107  15.80000019  52.04999924
C    21.14999962  15.36999893  52.35000229
C    21.47000122  14.98999977  53.66000366
C    20.52000046  14.75999928  54.61000061
C    19.17000008  15.25000000  54.38999939
C    15.05000019  15.80000019  53.41999817
C    14.27000046  15.46000004  54.61999893
C    12.86999893  15.50000000  54.66999817
C    22.95999908  14.73999977  53.88999939
H    23.13854408  14.83284283  54.96126175
H    18.25000000  14.68999958  56.29000092
H    17.21999931  16.35000038  51.72999954
H    19.71999931  16.10000038  51.02000427
H    21.77999878  15.19999981  51.47999573
H    20.79000092  14.44000053  55.61000061
H    12.30000019  15.31000042  55.56999969
H    23.44000053  15.54999924  53.33000183
H    23.15000153  13.73999977  53.47999954
