96

S    12.11999989  16.43000031  43.96999741
C     9.48000050  16.65999985  44.61999893
C    10.71000004  16.11999893  44.92000198
C    10.97000027  15.52000046  46.18999863
C     9.92000008  15.40999985  47.11000061
C     8.64000034  15.98000050  46.84000015
C     7.60999966  15.98000050  47.76000214
C     6.44999981  16.68000031  47.55000305
C     6.15999985  17.25000000  46.26999664
C     7.13999987  17.12000084  45.27000046
C     8.43000031  16.61000061  45.56000137
C    12.42000008  15.39999962  46.37000275
C    13.15000057  15.76000023  45.24000168
C    14.51000023  15.85000038  45.27000046
C     4.73000002  17.61999893  45.84999847
H     4.42745972  17.02179527  44.99050903
H     9.28999996  17.09000015  43.63999939
H    10.25000000  14.96999931  48.04000092
H     7.73000002  15.50000000  48.73000336
H     5.66999960  16.48999977  48.27999878
H     7.00999975  17.34000015  44.20999908
H    15.03999901  16.10000038  44.36000061
H     3.97000027  17.50000000  46.62000275
H     4.71000004  18.68999863  45.59000015
S    15.39000034  15.13000011  48.99000168
C    18.15999985  14.75000000  48.47999954
C    16.93000031  15.07999992  48.02000046
C    16.62999916  15.46000004  46.72000122
C    17.71000099  15.62000084  45.90000153
C    19.01000023  15.26000023  46.24000168
C    20.10999870  15.26000023  45.34000015
C    21.35999870  14.73999977  45.66999817
C    21.53000069  14.11000061  46.91999817
C    20.61000061  14.27000046  47.95000076
C    19.27999878  14.78000069  47.60000229
C    15.18000031  15.57999992  46.40999603
C    14.45000076  15.26999950  47.58999634
C    13.09000015  15.22999954  47.57999802
C    22.88000107  13.59000015  47.29000092
H    23.30183220  14.25184059  48.04639053
H    18.35000038  14.29999924  49.45000076
H    17.53000069  15.88999939  44.86000061
H    19.95000076  15.62999916  44.33000183
H    22.10000038  14.68000031  44.88999939
H    20.76999855  13.94999981  48.96999741
H    12.55000019  15.26000023  48.53000259
H    23.54000092  13.61999989  46.40999603
H    22.82999992  12.57999992  47.71999741
S    11.40999985  16.52000046  50.81999969
C     8.69999981  17.38000107  51.39999771
C     9.98999977  16.79000092  51.76000214
C    10.26000023  16.47999954  53.13999939
C     9.30999947  16.61999893  54.09000015
C     8.01000023  17.10000038  53.80000305
C     6.94000006  17.06999969  54.75000000
C     5.63000011  17.35999870  54.40000153
C     5.28999996  17.64999962  53.04999924
C     6.30999994  17.67000008  52.11999893
C     7.68000031  17.42000008  52.42000198
C    11.67000008  16.13000107  53.40000153
C    12.38999939  16.27000046  52.22999954
C    13.78999901  16.32999992  52.25000000
C     3.84999990  18.02999878  52.71999741
H     3.47326255  17.51109695  51.83857346
H     8.39999962  17.52000046  50.37000275
H     9.47000027  16.10999870  55.04000092
H     7.18999958  16.70999908  55.73999786
H     4.82999992  17.30999947  55.13000107
H     6.11999989  17.82999992  51.05999756
H    14.26000023  16.32999992  51.26999664
H     3.30000019  17.79999924  53.63999939
H     3.81000018  19.11999893  52.58999634
S    14.70999908  15.54999924  56.02000427
C    17.45000076  15.25000000  55.47000122
C    16.14999962  15.52000046  55.06000137
C    15.86999989  15.84000015  53.68999863
C    16.93000031  15.93000031  52.78999710
C    18.23999977  15.62000084  53.18999863
C    19.38999939  15.93000031  52.35000229
C    20.62000084  15.48999977  52.80000305
C    20.86000061  14.91000080  54.05000305
C    19.85999870  14.93000031  54.91000366
C    18.53000069  15.22999954  54.55999756
C    14.50000000  16.13000107  53.40999985
C    13.76999950  15.90999985  54.56999969
C    12.39999962  15.93999958  54.61000061
C    22.32000160  14.60999966  54.45000076
H    22.68422508  15.11262989  55.34599304
H    17.68000031  14.92000008  56.47999573
H    16.61999893  16.28000069  51.79999924
H    19.19000053  16.35000038  51.37000275
H    21.44000053  15.62999916  52.09999847
H    20.15999985  14.70999908  55.93000031
H    11.90000057  15.98999977  55.56999969
H    22.88999939  14.92000008  53.56999969
H    22.44999886  13.53000069  54.64000320
