96

S    12.28999996  16.28000069  44.02999878
C     9.63999939  17.10000038  44.86000061
C    10.88000107  16.48999977  45.13000107
C    11.21999931  15.95000076  46.38999939
C    10.29999924  16.09000015  47.42000198
C     9.04999924  16.69999886  47.18999863
C     7.92999983  16.57999992  48.15999985
C     6.63999987  16.93000031  47.83000183
C     6.30999994  17.42000008  46.47999573
C     7.34000015  17.53000069  45.56999969
C     8.69000053  17.18000031  45.86000061
C    12.65999985  15.72000027  46.55000305
C    13.36999989  15.86999989  45.38999939
C    14.70000076  15.77000046  45.30000305
C     4.90000010  17.85000038  46.13999939
H     4.46923256  17.22538757  45.35744095
H     9.38000011  17.35000038  43.82999802
H    10.50000000  15.54999924  48.34000015
H     8.15999985  16.11999893  49.12000275
H     5.98000002  17.01000023  48.68999863
H     7.17000008  17.77000046  44.52000046
H    15.29999924  16.00000000  44.41999817
H     4.41000032  17.77000046  47.11999893
H     4.92000008  18.93000031  45.93999863
S    15.82999992  15.06000042  49.00000000
C    18.51000023  14.98000050  48.44999695
C    17.22999954  15.27999973  47.97999954
C    16.87000084  15.59000015  46.70000076
C    17.92000008  15.65000057  45.76000214
C    19.22999954  15.24000072  46.07999802
C    20.27000046  15.17000008  45.06000137
C    21.53000069  14.89999962  45.41999817
C    21.96000099  14.63000107  46.77000046
C    20.96999931  14.55999947  47.78999710
C    19.59000015  14.92000008  47.49000168
C    15.46000004  15.52999973  46.43000031
C    14.75000000  15.38000011  47.63000107
C    13.38000107  15.38000011  47.74000168
C    23.38999939  14.28999996  47.08000183
H    23.64826012  14.68088150  48.06418228
H    18.67000008  14.47000027  49.40000153
H    17.69000053  15.77999973  44.69999695
H    20.06999969  15.52999973  44.05000305
H    22.32000160  14.80999947  44.68000031
H    21.07999992  14.19999981  48.81000137
H    12.90999985  15.22999954  48.70999908
H    23.97000122  14.80000019  46.30000305
H    23.52000046  13.21000004  46.98999786
S    11.98999977  16.81999969  50.70999908
C     9.39000034  17.31999969  51.46999741
C    10.60999966  16.84999847  51.79999924
C    10.95000076  16.44000053  53.15000153
C     9.90999985  16.45000076  54.09000015
C     8.65999985  16.94000053  53.72000122
C     7.59000015  16.87000084  54.64000320
C     6.25999975  17.13999939  54.27999878
C     6.01000023  17.53999901  53.00000000
C     7.00999975  17.80999947  52.06999969
C     8.36000061  17.40999985  52.44999695
C    12.36999989  16.11999893  53.26000214
C    13.07999992  16.32999992  52.02999878
C    14.47999954  16.28000069  52.04999924
C     4.57999992  17.86000061  52.80000305
H     4.23817873  17.27605629  51.94544601
H     9.19999981  17.50000000  50.41999817
H    10.03000069  16.09000015  55.11000061
H     7.88000011  16.62999916  55.65999985
H     5.46999979  16.97999954  55.00999832
H     6.88000011  18.20000076  51.06999969
H    15.11999989  16.54999924  51.20999908
H     3.91000009  17.64999962  53.63999939
H     4.46000004  18.94000053  52.68000031
S    15.62000084  15.48999977  55.77000046
C    18.30000114  14.91000080  55.00000000
C    17.00000000  15.26999950  54.64000320
C    16.61000061  15.51000023  53.26000214
C    17.64000130  15.52999973  52.31999969
C    19.01000023  15.19000053  52.67000198
C    20.10000038  15.22999954  51.72000122
C    21.32999802  14.88000011  52.12999725
C    21.57999992  14.42999935  53.43999863
C    20.55999947  14.37999916  54.34000015
C    19.22999954  14.78999996  54.01000214
C    15.21000004  15.80000019  53.18000031
C    14.48999977  15.69000053  54.36999893
C    13.12000084  15.86999989  54.40999985
C    23.05000114  14.04000092  53.88000107
H    23.35345268  14.61730003  54.75335312
H    18.63000107  14.88999939  56.04000092
H    17.56000137  15.93999958  51.31999969
H    19.84000015  15.50000000  50.70000076
H    22.14999962  14.57999992  51.49000168
H    20.72999954  14.09999943  55.38000107
H    12.64999962  16.10999870  55.35999680
H    23.68000031  14.14000034  52.97999954
H    23.02000046  12.97999954  54.15000153
