96

S    12.43999958  16.35000038  44.26000214
C     9.85000038  16.69999886  44.93999863
C    11.05999947  16.28999901  45.34000015
C    11.33999920  15.81999969  46.70000076
C    10.26000023  15.77999973  47.61000061
C     8.97999954  16.22999954  47.21000290
C     7.94000053  16.21999931  48.15000153
C     6.77999973  16.84999847  47.88999939
C     6.53999996  17.26000023  46.55000305
C     7.48000050  17.10000038  45.54000092
C     8.73000050  16.65999985  45.84999847
C    12.75000000  15.59000015  46.77999878
C    13.52000046  15.80999947  45.56999969
C    14.86999989  15.84000015  45.52000046
C     5.25000000  17.72999954  46.11000061
H     4.76165962  16.88258553  45.62884140
H     9.77000046  17.05999947  43.92000198
H    10.43000031  15.43000031  48.61999893
H     8.25000000  15.85000038  49.13000107
H     6.01999998  16.79000092  48.66000366
H     7.25000000  17.46000099  44.54000092
H    15.44999981  16.11999893  44.64000320
H     4.61000013  18.02000046  46.95999908
H     5.32000017  18.53999901  45.37000275
S    15.95999908  15.17000008  49.29000092
C    18.71999931  15.27999973  48.46000290
C    17.34000015  15.44999981  48.18999863
C    16.97999954  15.65999985  46.84999847
C    17.89999962  15.75000000  45.84999847
C    19.27000046  15.64000034  46.09000397
C    20.30999947  15.93000031  45.12000275
C    21.63999939  15.59000015  45.40000153
C    21.97000122  15.18000031  46.70000076
C    21.04000092  15.19000053  47.75000000
C    19.68000031  15.40999985  47.44999695
C    15.57999992  15.62000084  46.66999817
C    14.86999989  15.38000011  47.85999680
C    13.48999977  15.42000008  47.97999954
C    23.35000038  14.75000000  47.15000153
H    23.58852196  14.94643021  48.19528580
H    18.92000008  15.08999920  49.51000214
H    17.48999977  15.98999977  44.87999725
H    20.13999939  16.22999954  44.09000015
H    22.29999924  15.54999924  44.54000092
H    21.38000107  15.03000069  48.76999664
H    12.98999977  15.36999893  48.94000244
H    23.97999954  15.31000042  46.45000076
H    23.61000061  13.71000099  46.91999817
S    16.28000069  12.56000042  52.72999573
C    19.00000000  12.15999985  51.75000000
C    17.61999893  12.15999985  51.56999969
C    16.98999977  11.92000008  50.31000137
C    17.92000008  11.54999924  49.25000000
C    19.34999847  11.61999893  49.38999939
C    20.19000053  11.23999977  48.33000183
C    21.54000092  11.18000031  48.62999725
C    22.11000061  11.46000004  49.86999893
C    21.24000168  11.84000015  50.93000031
C    19.84000015  11.87999916  50.70999908
C    15.55999947  12.05000019  50.24000168
C    15.00000000  12.53000069  51.46999741
C    13.63000011  12.86000061  51.59000015
C    23.57999992  11.28000069  50.13000107
H    23.85845947  11.55846024  51.14637756
H    19.44000053  12.42000008  52.70999908
H    17.61000061  11.19999981  48.27000046
H    19.65999985  10.88000107  47.45999908
H    22.20999908  10.75000000  47.88000107
H    21.63000107  11.90000057  51.95000076
H    13.23999977  13.31999969  52.49000168
H    23.88000107  10.26000023  49.86999893
H    24.11999893  11.79999924  49.33000183
S    12.27000046  11.94000053  47.90999985
C     9.72000027  12.46999931  48.63999939
C    11.02000046  12.50000000  49.01000214
C    11.47999954  12.92000008  50.27999878
C    10.54999924  13.38999939  51.20999908
C     9.17000008  13.30000019  50.84999847
C     8.15999985  13.59000015  51.88999939
C     6.88000011  13.67000008  51.49000168
C     6.44000006  13.35000038  50.21999741
C     7.34000015  12.92000008  49.22999954
C     8.71999931  12.93000031  49.52999878
C    12.86000061  12.69000053  50.40999985
C    13.40000057  12.30000019  49.16999817
C    14.78999996  12.05000019  49.05000305
C     4.92000008  13.48000050  49.88999939
H     4.66503811  13.10789394  48.89771271
H     9.52000046  11.92000008  47.71999741
H    10.88000107  13.55999947  52.22999954
H     8.39999962  13.82999992  52.93000031
H     6.21000004  14.06999969  52.25000000
H     6.94000006  12.53000069  48.29999924
H    15.36999893  12.06999969  48.13000107
H     4.84000015  14.57999992  49.93000031
H     4.28999996  13.00000000  50.65000153
