96

S    12.22000027  16.98999977  44.16999817
C     9.53999996  17.20999908  44.86000061
C    10.76000023  16.77000046  45.18000031
C    11.07999992  16.35000038  46.51000214
C    10.10000038  16.20000076  47.43000031
C     8.78000069  16.70999908  47.22999954
C     7.73000002  16.61999893  48.15000153
C     6.46000004  16.81999969  47.77999878
C     6.17999983  17.50000000  46.52999878
C     7.20000029  17.67000008  45.61000061
C     8.50000000  17.27000046  45.90000153
C    12.51000023  16.31000137  46.70999908
C    13.23999977  16.61999893  45.54000092
C    14.60999966  16.64999962  45.45999908
C     4.76999998  17.76000023  46.11999893
H     4.42963457  17.12181473  45.30454254
H     9.35000038  17.61999893  43.87000275
H    10.42000008  15.82999992  48.40000153
H     7.97999954  16.13999939  49.09000015
H     5.55999994  16.57999992  48.34999847
H     6.94999981  18.02999878  44.61000061
H    15.14999962  16.67000008  44.52000046
H     4.09000015  17.65999985  46.97000122
H     4.61999989  18.81999969  45.86999893
S    15.72000027  15.62000084  49.08000183
C    18.34000015  15.18000031  48.23999786
C    17.11000061  15.60999966  48.00000000
C    16.77000046  16.18999863  46.72999954
C    17.72999954  16.18000031  45.72000122
C    19.06999969  15.78999996  46.00999832
C    20.17000008  16.11999893  45.10000229
C    21.45000076  15.80000019  45.47000122
C    21.65999985  15.03000069  46.68000031
C    20.62999916  14.70999908  47.51999664
C    19.38999939  15.24000072  47.25999832
C    15.34999943  16.43000031  46.65000153
C    14.60999966  16.13000107  47.78999710
C    13.22000027  15.95999908  47.84999847
C    23.12999916  14.65999985  47.09999847
H    23.32888222  15.09328079  48.08020782
H    18.54999924  14.77000046  49.22999954
H    17.42000008  16.53000069  44.73999786
H    19.92000008  16.53000069  44.13000107
H    22.25000000  16.21999931  44.86999893
H    20.79999924  14.25000000  48.48999786
H    12.68000031  15.69000053  48.75999832
H    23.84000015  15.07999992  46.38000107
H    23.19999886  13.56999969  47.27000427
S    11.69000053  17.17000008  50.72000122
C     9.00000000  17.35000038  51.32999802
C    10.24000072  16.87000084  51.66999817
C    10.57000065  16.44000053  52.97999954
C     9.59000015  16.36999893  53.88999939
C     8.25000000  16.77999878  53.60000229
C     7.17999983  16.76000023  54.54000092
C     5.95000029  17.20000076  54.20000076
C     5.69999981  17.64999962  52.90000153
C     6.67999983  17.78000069  52.00000000
C     7.96999979  17.28000069  52.28000259
C    11.96000004  16.34000015  53.15000153
C    12.69000053  16.72999954  52.05999756
C    14.04000092  16.88999939  52.05999756
C     4.33999968  18.02999878  52.50000000
H     3.98754716  17.54537582  51.58949661
H     8.89000034  17.78000069  50.34000015
H     9.89000034  16.21999931  54.92000198
H     7.40000010  16.46999931  55.56999969
H     5.15999985  17.31999969  54.93000031
H     6.60000038  18.22999954  51.02000427
H    14.52999973  17.02000046  51.10000229
H     3.68000007  17.84000015  53.34999847
H     4.36999989  19.07999992  52.19999695
S    15.21999931  15.72000027  55.68999863
C    17.80999947  15.67000008  54.99000168
C    16.54000092  16.10000038  54.61999893
C    16.21999931  16.46000099  53.36000061
C    17.23999977  16.55999947  52.36999893
C    18.57999992  16.21000099  52.67000198
C    19.67000008  16.22999954  51.68000031
C    20.89999962  15.78999996  52.02000046
C    21.11000061  15.25000000  53.30999756
C    20.13000107  15.21000004  54.27999878
C    18.86999893  15.73999977  53.96999741
C    14.73000050  16.55999947  53.18999863
C    14.07999992  16.11999893  54.38000107
C    12.67000008  16.04999924  54.36999893
C    22.56999969  14.75999928  53.68999863
H    22.82546234  15.06513596  54.70475388
H    18.13999939  15.19000053  55.90000153
H    17.04000092  16.80999947  51.32999802
H    19.37000084  16.59000015  50.70000076
H    21.68000031  15.97000027  51.29000092
H    20.15999985  14.73999977  55.25000000
H    12.06999969  15.76000023  55.22999573
H    23.31000137  15.13000011  52.97999954
H    22.63999939  13.67000008  53.74000168
