96

S    11.87000084  16.67000008  43.93000031
C     9.21000004  17.20999908  44.54999924
C    10.40999985  16.72000122  44.98000336
C    10.73999977  16.29999924  46.32999802
C     9.72000027  16.40999985  47.28000259
C     8.38999939  16.77000046  46.81000137
C     7.27999973  16.84000015  47.76000214
C     6.01999998  17.17000008  47.35000229
C     5.79999971  17.35000038  45.97999954
C     6.77999973  17.39999962  45.06999969
C     8.10000038  17.09000015  45.41999817
C    12.18000031  16.04999924  46.46999741
C    12.90999985  16.28999901  45.25000000
C    14.29999924  16.18000031  45.24000168
C     4.42000008  17.78000069  45.51000214
H     4.01803064  17.22288513  44.66374969
H     9.11999989  17.80999947  43.64999771
H     9.94000053  16.18000031  48.31999969
H     7.59000015  16.62999916  48.77999878
H     5.23000002  17.17000008  48.09000015
H     6.69000053  17.71999931  44.03999710
H    14.80000019  16.10000038  44.27999878
H     3.81000018  17.79999924  46.42000198
H     4.48999977  18.82999992  45.20999908
S    15.42000008  15.80000019  49.06000137
C    18.05999947  15.32999992  48.43999863
C    16.76000023  15.72000027  48.02999878
C    16.45000076  16.03000069  46.65000153
C    17.51000023  16.23999977  45.77999878
C    18.81000137  15.90999985  46.11000061
C    19.82999992  15.88000107  45.12000275
C    21.02999878  15.32999992  45.41999817
C    21.37000084  14.88000011  46.70000076
C    20.42000008  14.86999989  47.65999603
C    19.06999969  15.39999962  47.44999695
C    14.98000050  15.98999977  46.44000244
C    14.28999996  15.90999985  47.65999603
C    12.89999962  15.81999969  47.67000198
C    22.75000000  14.47999954  46.95000076
H    23.03251076  14.76251030  47.96413803
H    18.20999908  14.88999939  49.41999817
H    17.20000076  16.59000015  44.79999924
H    19.56999969  16.05999947  44.08000183
H    21.78999901  15.06000042  44.68999863
H    20.72000122  14.44000053  48.61000061
H    12.38000011  15.82999992  48.62999725
H    23.39999962  14.93000031  46.18000031
H    22.81999969  13.38999939  46.79999924
S    15.93999958  12.94000053  52.15999985
C    18.54999924  12.57999992  51.14999771
C    17.21999931  12.53999901  50.98999786
C    16.70999908  12.07999992  49.73999786
C    17.52000046  11.61000061  48.72000122
C    18.89999962  11.54999924  48.99000168
C    19.82999992  10.95999908  48.06999969
C    21.19999886  10.95000076  48.30999756
C    21.71999931  11.36999989  49.52999878
C    20.86000061  11.97000027  50.45999908
C    19.45000076  12.11999989  50.20999908
C    15.21999931  12.20000076  49.72000122
C    14.67000008  12.69000053  51.00999832
C    13.40999985  13.27999973  51.11000061
C    23.09000015  10.88999939  49.93999863
H    23.52175140  11.40810204  50.79630661
H    19.01000023  12.81999969  52.11000061
H    17.02999878  11.17000008  47.85999680
H    19.42000008  10.48999977  47.18000031
H    21.76000214  10.46000004  47.50999832
H    21.14000130  12.20000076  51.49000168
H    13.07999992  13.78000069  52.02000046
H    23.05000114   9.81000042  50.13999939
H    23.82999802  10.93999958  49.13000107
S    11.98999977  12.43999958  47.43999863
C     9.35999966  13.12000084  48.11000061
C    10.70000076  13.15999985  48.40999985
C    11.19999981  13.53000069  49.75000000
C    10.29000092  13.94999981  50.63999939
C     8.86999989  13.96999931  50.41999817
C     7.95000029  14.40000057  51.43000031
C     6.57999992  14.35999966  51.20999908
C     6.12999964  13.90999985  49.92000198
C     7.03000021  13.45999908  48.95999908
C     8.45000076  13.57999992  49.12000275
C    12.61000061  13.17000008  49.91000366
C    13.17999935  12.64999962  48.68000031
C    14.45000076  12.10999966  48.56999969
C     4.67000008  14.02999973  49.47999954
H     4.50699472  13.56224442  48.50905609
H     9.02000046  12.68000031  47.18000031
H    10.76000023  14.32999992  51.53999710
H     8.34999943  14.86999989  52.32999802
H     5.89999962  14.82999992  51.91999817
H     6.65000010  12.82999992  48.15999985
H    14.81999969  11.84000015  47.58999634
H     4.34999990  15.06999969  49.31999969
H     4.07999992  13.63999939  50.31999969
