96

S    11.75000000  16.65999985  44.20000076
C     9.26999950  17.27000046  45.31000137
C    10.52999973  16.82999992  45.48999786
C    10.93999958  16.31999969  46.70000076
C    10.07999992  16.27000046  47.75000000
C     8.75000000  16.72000122  47.57999802
C     7.72000027  16.61000061  48.59000397
C     6.37000036  16.84000015  48.36000061
C     5.98000002  17.32999992  47.15000153
C     6.90000010  17.51000023  46.10000229
C     8.28999996  17.15999985  46.32999802
C    12.34000015  16.03000069  46.72000122
C    12.93000031  16.13000107  45.40999985
C    14.30999947  16.03000069  45.34000015
C     4.48999977  17.31999969  46.84999847
H     4.25608349  17.12048149  45.80425644
H     8.90999985  17.78000069  44.41999817
H    10.42000008  16.04999924  48.75999832
H     8.00000000  16.23999977  49.56999969
H     5.65999985  16.77000046  49.18000031
H     6.54999971  17.86000061  45.13999939
H    14.80000019  16.28000069  44.40000153
H     4.00999975  16.55999947  47.48000336
H     4.00999975  18.26000023  47.14000320
S    15.52999973  15.34000015  49.01000214
C    18.22000122  14.88999939  48.15999985
C    16.87999916  15.15999985  47.81000137
C    16.53000069  15.48999977  46.52999878
C    17.51000023  15.60999966  45.51000214
C    18.82999992  15.29000092  45.77999878
C    19.90999985  15.38000011  44.79999924
C    21.21999931  15.03999901  45.13999939
C    21.47999954  14.60000038  46.45000076
C    20.45000076  14.59000015  47.38999939
C    19.10000038  14.85999966  47.11000061
C    15.08999920  15.69000053  46.46999741
C    14.42999935  15.64000034  47.72999573
C    13.09999943  15.80000019  47.88000107
C    22.90999985  14.27000046  46.88000107
H    23.20972061  14.74682808  47.81322098
H    18.50000000  14.65000057  49.18000031
H    17.28000069  15.92000008  44.48999786
H    19.64999962  15.80999947  43.83999634
H    22.00000000  15.14999962  44.38999939
H    20.59000015  14.27000046  48.41999817
H    12.55000019  15.64000034  48.80000305
H    23.57000160  14.67000008  46.10000229
H    23.05000114  13.19000053  47.00000000
S    11.42000008  17.02000046  51.02000427
C     8.80000019  17.56999969  51.77000046
C    10.08999920  17.13000107  52.14000320
C    10.57000065  16.90000153  53.43000031
C     9.64999962  16.88999939  54.45000076
C     8.30000019  17.29999924  54.15999985
C     7.28999996  17.30999947  55.13000107
C     5.96000004  17.63000107  54.85000229
C     5.58000040  18.06999969  53.54000092
C     6.61999989  18.23999977  52.63000107
C     7.92000008  17.75000000  52.84000015
C    11.97999954  16.64999962  53.50999832
C    12.61000061  16.77000046  52.25000000
C    14.02999973  16.61999893  52.12999725
C     4.09000015  18.40999985  53.20000076
H     3.81930184  17.96577644  52.24214554
H     8.56000042  18.01000023  50.80999756
H     9.92000008  16.46999931  55.40999985
H     7.51999950  16.87999916  56.10000229
H     5.19000006  17.51000023  55.61000061
H     6.40999985  18.71000099  51.66999817
H    14.55000019  16.36000061  51.20999908
H     3.42999983  18.06999969  54.00000000
H     3.93000007  19.50000000  53.15999985
S    15.19999981  15.86999989  55.87999725
C    17.85000038  15.34000015  55.17000198
C    16.57999992  15.76000023  54.81999969
C    16.18999863  16.14999962  53.47999954
C    17.20999908  16.34000015  52.55000305
C    18.54999924  15.80999947  52.84000015
C    19.57999992  15.67999935  51.84000015
C    20.86000061  15.26000023  52.22000122
C    21.18999863  15.03000069  53.57999802
C    20.15000153  15.06999969  54.48999786
C    18.82999992  15.39000034  54.18000031
C    14.75000000  16.42000008  53.31999969
C    14.07999992  16.27000046  54.59999847
C    12.71000004  16.39999962  54.65000153
C    22.62000084  14.65999985  54.06000137
H    22.88933372  15.08220005  55.02814865
H    18.06999969  15.00000000  56.17000198
H    17.04000092  16.75000000  51.56000137
H    19.42000008  15.85999966  50.77999878
H    21.63000107  15.24000072  51.45000076
H    20.32999992  14.78000069  55.52000046
H    12.20000076  16.43000031  55.61000061
H    23.36999893  15.00000000  53.34000015
H    22.72999954  13.56999969  53.97999573
