96

S    11.75000000  16.65999985  44.20000076
C     9.26999950  17.27000046  45.31000137
C    10.52999973  16.82999992  45.48999786
C    10.93999958  16.31999969  46.70000076
C    10.07999992  16.27000046  47.75000000
C     8.75000000  16.72000122  47.57999802
C     7.72000027  16.61000061  48.59000397
C     6.37000036  16.84000015  48.36000061
C     5.98000002  17.32999992  47.15000153
C     6.90000010  17.51000023  46.10000229
C     8.28999996  17.15999985  46.32999802
C    12.34000015  16.03000069  46.72000122
C    12.93000031  16.13000107  45.40999985
C    14.30999947  16.03000069  45.34000015
C     4.48999977  17.31999969  46.84999847
H     4.25608349  17.12048149  45.80425644
H     8.90999985  17.78000069  44.41999817
H    10.42000008  16.04999924  48.75999832
H     8.00000000  16.23999977  49.56999969
H     5.65999985  16.77000046  49.18000031
H     6.54999971  17.86000061  45.13999939
H    14.80000019  16.28000069  44.40000153
H     4.00999975  16.55999947  47.48000336
H     4.00999975  18.26000023  47.14000320
S    15.52999973  15.34000015  49.01000214
C    18.22000122  14.88999939  48.15999985
C    16.87999916  15.15999985  47.81000137
C    16.53000069  15.48999977  46.52999878
C    17.51000023  15.60999966  45.51000214
C    18.82999992  15.29000092  45.77999878
C    19.90999985  15.38000011  44.79999924
C    21.21999931  15.03999901  45.13999939
C    21.47999954  14.60000038  46.45000076
C    20.45000076  14.59000015  47.38999939
C    19.10000038  14.85999966  47.11000061
C    15.08999920  15.69000053  46.46999741
C    14.42999935  15.64000034  47.72999573
C    13.09999943  15.80000019  47.88000107
C    22.90999985  14.27000046  46.88000107
H    23.20972061  14.74682808  47.81322098
H    18.50000000  14.65000057  49.18000031
H    17.28000069  15.92000008  44.48999786
H    19.64999962  15.80999947  43.83999634
H    22.00000000  15.14999962  44.38999939
H    20.59000015  14.27000046  48.41999817
H    12.55000019  15.64000034  48.80000305
H    23.57000160  14.67000008  46.10000229
H    23.05000114  13.19000053  47.00000000
S    16.18999863  12.94000053  52.21000290
C    18.72999954  12.50000000  51.36000061
C    17.39999962  12.42000008  51.00000000
C    16.90000153  12.17000008  49.68999863
C    17.81999969  11.68000031  48.77999878
C    19.19000053  11.72999954  49.06999969
C    20.15000153  11.11999989  48.16999817
C    21.44000053  10.97000027  48.48999786
C    21.94999886  11.57999992  49.65999985
C    21.09000015  12.15000057  50.54999924
C    19.63999939  12.23999977  50.31999969
C    15.48999977  12.36999989  49.65000153
C    14.91000080  12.74000072  50.89000320
C    13.56999969  13.14000034  50.98999786
C    23.45000076  11.46000004  49.98000336
H    23.63663292  11.76414299  51.00993729
H    19.04999924  12.75000000  52.36999893
H    17.53999901  11.17000008  47.85999680
H    19.71999931  10.76000023  47.25000000
H    22.04999924  10.31999969  47.88000107
H    21.47000122  12.44999981  51.52000046
H    13.22999954  13.47000027  51.97000122
H    23.68999863  10.39000034  49.97000122
H    24.11999893  12.02000046  49.31000137
S    12.02000046  12.38999939  47.42000198
C     9.38000011  12.65999985  48.41999817
C    10.72000027  12.77999973  48.63999939
C    11.23999977  13.25000000  49.86999893
C    10.29000092  13.59000015  50.90000153
C     8.88000011  13.50999928  50.65000153
C     7.88999987  14.09999943  51.49000168
C     6.61000013  14.27000046  51.11000061
C     6.15000010  13.75000000  49.86999893
C     7.07000017  13.15999985  49.01000214
C     8.43999958  13.03999996  49.40999985
C    12.71000004  13.04999924  49.85000229
C    13.25000000  12.51999950  48.68999863
C    14.57999992  12.20000076  48.54000092
C     4.73000002  14.01999950  49.41999817
H     4.48685312  13.54760075  48.46825409
H     9.07999992  12.39999962  47.41000366
H    10.64000034  13.96999931  51.86000061
H     8.10999966  14.81999969  52.27000427
H     6.05000019  14.96999931  51.72000122
H     6.72999954  12.93000031  48.00000000
H    15.00000000  12.00000000  47.56000137
H     4.59999990  15.11000061  49.36999893
H     4.01999998  13.71000099  50.20000076
