96

S    12.38000011  16.86000061  44.36000061
C     9.64999962  17.35000038  44.95999908
C    10.90999985  16.92000008  45.34000015
C    11.13999939  16.35000038  46.63999939
C    10.11000061  16.15999985  47.49000168
C     8.80999947  16.64999962  47.15999985
C     7.69999981  16.67000008  48.08000183
C     6.51999998  17.12000084  47.72999573
C     6.25999975  17.46999931  46.39999771
C     7.30999994  17.76000023  45.58000183
C     8.56999969  17.26000023  45.91999817
C    12.57999992  16.06999969  46.86999893
C    13.34000015  16.28000069  45.70000076
C    14.65999985  16.23999977  45.61000061
C     4.84000015  17.93000031  45.97000122
H     4.47624731  17.39507103  45.09271240
H     9.52999973  17.78000069  43.96999741
H    10.29999924  15.76000023  48.48999786
H     7.90000010  16.13999939  49.01000214
H     5.73000002  17.13999939  48.47000122
H     7.13999987  18.32999992  44.66999817
H    15.13000011  16.22999954  44.62999725
H     4.09000015  17.72999954  46.75000000
H     4.99000025  18.98999977  45.73999786
S    15.80000019  14.98000050  49.20000076
C    18.46999931  14.60999966  48.55999756
C    17.19000053  15.01000023  48.20000076
C    16.81999969  15.59999943  46.93000031
C    17.82999992  15.73999977  45.96000290
C    19.17000008  15.34000015  46.29000092
C    20.22000122  15.47000027  45.34000015
C    21.38999939  15.03000069  45.73999786
C    21.70000076  14.35999966  46.90999985
C    20.69999886  14.26000023  47.85999680
C    19.44000053  14.81999969  47.62000275
C    15.39000034  15.90000057  46.77000046
C    14.68999958  15.62000084  47.91999817
C    13.30000019  15.73999977  48.04999924
C    23.12000084  14.04999924  47.36000061
H    23.36026001  14.57291794  48.28570557
H    18.60999870  14.00000000  49.45000076
H    17.70000076  16.18000031  44.98000336
H    20.07999802  16.00000000  44.40000153
H    22.20000076  15.26000023  45.06000137
H    20.76999855  13.66000080  48.75999832
H    12.71999931  15.55999947  48.95000076
H    23.78999901  14.46000004  46.59999847
H    23.29000092  12.96000004  47.36000061
S    15.86999989  12.28999996  52.11999893
C    18.44000053  11.84000015  51.30000305
C    17.06999969  11.87999916  51.00000000
C    16.63999939  11.54000092  49.72999954
C    17.51000023  11.21999931  48.74000168
C    18.89999962  11.28999901  49.06999969
C    19.95000076  10.88999939  48.16999817
C    21.28000069  10.93999958  48.43000031
C    21.70999908  11.21000099  49.78000259
C    20.78000069  11.54000092  50.72000122
C    19.40999985  11.54999924  50.38999939
C    15.17000008  11.59000015  49.66999817
C    14.63000107  12.15999985  50.87999725
C    13.38000107  12.64999962  50.97000122
C    23.15000153  11.21999931  50.13000107
H    23.34754372  11.37364483  51.19088364
H    18.78999901  12.20999908  52.25999832
H    17.21999931  10.80000019  47.77999878
H    19.63999939  10.62000084  47.16999817
H    22.00000000  10.51000023  47.72999573
H    21.07999992  12.02000046  51.63999939
H    13.02999973  13.10999966  51.88999939
H    23.59999847  10.25000000  49.89999771
H    23.64999962  12.03999996  49.59000015
S    11.82999992  11.72999954  47.36999893
C     9.26999950  12.43999958  48.23999786
C    10.60999966  12.36999989  48.46000290
C    11.13999939  12.84000015  49.72000122
C    10.25000000  13.27000046  50.76000214
C     8.90999985  13.38999939  50.44000244
C     7.96000004  13.89000034  51.42000198
C     6.67999983  14.04999924  51.07999802
C     6.23000050  13.85000038  49.72999954
C     7.00999975  13.31999969  48.80000305
C     8.38000011  13.04999924  49.15999985
C    12.55000019  12.55000019  49.85000229
C    13.02999973  11.87000084  48.62999725
C    14.37000084  11.47999954  48.50999832
C     4.74000025  14.11000061  49.36000061
H     4.39959908  13.50011539  48.52318192
H     8.89999962  11.97000027  47.32999802
H    10.52999973  13.56999969  51.76000214
H     8.36999989  14.15999985  52.38999939
H     5.93999958  14.42999935  51.77999878
H     6.71000004  13.03999996  47.80000305
H    14.81999969  11.03000069  47.63000107
H     4.63000011  15.14999962  49.02999878
H     4.21999979  13.86999989  50.30000305
