96

S    12.81000042  16.61000061  44.29999924
C    10.19000053  17.25000000  44.93999863
C    11.32999992  16.75000000  45.34999847
C    11.63000011  16.34000015  46.70999908
C    10.60999966  16.39999962  47.58999634
C     9.35999966  16.95000076  47.18999863
C     8.32999992  16.84999847  48.15999985
C     7.03000021  16.90999985  47.70000076
C     6.75000000  17.39999962  46.36000061
C     7.77999973  17.60000038  45.44000244
C     9.11999989  17.36999893  45.84000015
C    12.97000027  15.95999908  46.81999969
C    13.78999901  16.11999893  45.66999817
C    15.11999989  16.01000023  45.59999847
C     5.33999968  17.71999931  45.96000290
H     5.00733137  17.07589722  45.14602280
H    10.08999920  17.57999992  43.90999603
H    10.70000076  16.06999969  48.62999725
H     8.51000023  16.46999931  49.15999985
H     6.14000034  16.77999878  48.30999756
H     7.50000000  17.56999969  44.38999939
H    15.67000008  16.40999985  44.75999832
H     4.59999990  17.47999954  46.73999786
H     5.35000038  18.77000046  45.68000031
S    16.09000015  14.81999969  49.20000076
C    18.79999924  14.70999908  48.60000229
C    17.53000069  14.98999977  48.20000076
C    17.23999977  15.57000065  46.90999985
C    18.26000023  15.85000038  46.07999802
C    19.61000061  15.57999992  46.45999908
C    20.72999954  15.76000023  45.59999847
C    22.03000069  15.36999893  45.91999817
C    22.25000000  14.75000000  47.18999863
C    21.21000099  14.56999969  48.06999969
C    19.88999939  14.91000080  47.70000076
C    15.81999969  15.67000008  46.79000092
C    15.03999901  15.29000092  47.88000107
C    13.63000011  15.47999954  47.95999908
C    23.69999886  14.27000046  47.39999771
H    24.09210396  14.75649929  48.29312134
H    18.97999954  14.13000011  49.50000000
H    18.02000046  16.18999863  45.07999802
H    20.53999901  16.02000046  44.56999969
H    22.88000107  15.62999916  45.30000305
H    21.38999939  14.09999943  49.02999878
H    13.05999947  15.18000031  48.82999802
H    24.36000061  14.42000008  46.52999878
H    23.59000015  13.22000027  47.68000031
S    12.13999939  17.01000023  51.00999832
C     9.56999969  17.54999924  51.86000061
C    10.77999973  17.02000046  52.11999893
C    11.03999996  16.46000099  53.39000320
C     9.98999977  16.31999969  54.26000214
C     8.67000008  16.82999992  53.96999741
C     7.57000017  16.63999939  54.80999756
C     6.34000015  17.09000015  54.40999985
C     6.11000013  17.69000053  53.11000061
C     7.13000011  17.73999977  52.18999863
C     8.42000008  17.42000008  52.69000244
C    12.43999958  16.28000069  53.56999969
C    13.17999935  16.35000038  52.29999924
C    14.56999969  16.18000031  52.27000427
C     4.69000006  18.07999992  52.67000198
H     4.34750652  17.50431824  51.81012344
H     9.52000046  18.15999985  50.96000290
H    10.11999989  15.69000053  55.13999939
H     7.59999990  15.95999908  55.65999985
H     5.58000040  16.97000122  55.18000031
H     7.03000021  18.18000031  51.19999695
H    15.11999989  16.39000130  51.36000061
H     4.00000000  17.88999939  53.50000000
H     4.80999994  19.13999939  52.38999939
S    15.65000057  15.67000008  55.98999786
C    18.31999969  15.03999901  55.26000214
C    17.05999947  15.46000004  54.88999939
C    16.69000053  15.73999977  53.50000000
C    17.75000000  15.80000019  52.56000137
C    19.00000000  15.46000004  52.97999954
C    19.93000031  15.43000031  51.95000076
C    21.25999832  15.22999954  52.25999832
C    21.63999939  15.01000023  53.61000061
C    20.69000053  14.88000011  54.55999756
C    19.34000015  15.14000034  54.33000183
C    15.29999924  15.92000008  53.36999893
C    14.57999992  15.90999985  54.59999847
C    13.17000008  15.98000050  54.68000031
C    23.12999916  14.75000000  53.92000198
H    23.42486954  14.97466278  54.94502640
H    18.42000008  14.46000004  56.17000198
H    17.53999901  15.98999977  51.51000214
H    19.63000107  15.85000038  51.00000000
H    21.96000099  15.31000042  51.44000244
H    20.96999931  14.50000000  55.52999878
H    12.69000053  15.85000038  55.65000153
H    23.78999901  15.26999950  53.20999908
H    23.31000137  13.68999958  53.68999863
