96

S    12.06999969  16.68000031  44.22000122
C     9.40999985  16.87999916  45.00000000
C    10.65999985  16.45000076  45.26000214
C    11.11999989  16.00000000  46.59000015
C    10.19999981  16.03999901  47.58999634
C     8.85000038  16.50000000  47.36000061
C     7.83999968  16.46999931  48.36000061
C     6.52999973  16.67000008  47.93000031
C     6.14000034  16.93000031  46.56999969
C     7.16000032  17.00000000  45.68000031
C     8.47999954  16.87999916  46.04999924
C    12.55000019  15.80000019  46.72999954
C    13.14000034  16.22999954  45.52999878
C    14.61999989  16.22999954  45.40000153
C     4.65000010  17.23999977  46.26999664
H     4.40945148  17.05605125  45.22290421
H     9.13999939  17.35999870  44.06000137
H    10.52999973  15.67000008  48.54999924
H     8.10000038  16.22999954  49.38999939
H     5.82000017  16.61999893  48.75000000
H     6.97000027  17.17000008  44.62999725
H    15.19999981  16.28000069  44.48999786
H     4.05000019  16.69000053  47.00000000
H     4.41000032  18.30000114  46.44000244
S    15.77999973  15.36999893  49.13000107
C    18.32999992  14.84000015  48.40999985
C    17.13999939  15.38000011  47.95999908
C    16.80999947  15.71000004  46.62000275
C    17.85000038  15.67000008  45.65000153
C    19.15999985  15.14999962  46.04000092
C    20.17999840  15.18000031  45.06000137
C    21.45000076  14.91000080  45.45000076
C    21.73999977  14.50000000  46.84999847
C    20.76999855  14.47999954  47.83000183
C    19.37999916  14.72000027  47.43000031
C    15.36999893  15.95999908  46.52999878
C    14.73000050  15.57000065  47.75000000
C    13.38000107  15.52000046  47.88000107
C    23.11000061  14.13000011  47.29000092
H    23.47076225  14.79998970  48.07042694
H    18.43000031  14.68999958  49.48999786
H    17.54999924  16.01000023  44.65999985
H    19.97999954  15.57000065  44.06999969
H    22.23999977  14.96000099  44.72000122
H    21.07000160  14.26000023  48.85000229
H    12.94999981  15.29000092  48.85000229
H    23.85999870  14.11999893  46.49000168
H    23.05999947  13.09999943  47.67000198
S    16.17000008  12.69999981  51.90000153
C    18.82999992  12.25000000  51.24000168
C    17.53000069  12.18000031  50.86000061
C    17.02999878  11.77999973  49.61000061
C    17.94000053  11.35000038  48.68000031
C    19.37000084  11.32999992  48.95999908
C    20.34000015  10.72999954  48.11000061
C    21.63000107  10.65999985  48.40999985
C    22.01999855  10.95999908  49.75999832
C    21.12999916  11.56000042  50.65000153
C    19.79999924  11.77000046  50.27999878
C    15.54999924  11.87000084  49.45999908
C    15.01000023  12.28000069  50.66999817
C    13.68999958  12.64999962  50.76000214
C    23.45999908  10.59999943  50.06999969
H    23.69643593  10.99637508  51.05746460
H    19.20999908  12.53000069  52.21000290
H    17.59000015  10.80000019  47.81000137
H    20.00000000  10.34000015  47.15000153
H    22.32999992  10.08999920  47.81000137
H    21.42999840  11.76000023  51.68000031
H    13.23999977  12.98999977  51.69000244
H    23.59000015   9.51000023  50.01999664
H    24.17000008  11.03000069  49.36000061
S    11.96000004  12.05000019  47.25000000
C     9.44999981  12.61000061  48.06999969
C    10.78999996  12.56999969  48.37999725
C    11.39000034  13.04999924  49.61000061
C    10.59999943  13.56999969  50.59999847
C     9.21000004  13.56999969  50.38000107
C     8.30000019  13.97999954  51.31999969
C     6.91999960  13.92000008  51.13999939
C     6.39999962  13.48000050  49.87999725
C     7.23000002  13.07000065  48.90999603
C     8.64000034  13.07999992  49.09000015
C    12.81999969  12.67000008  49.68000031
C    13.30999947  12.10999966  48.44999695
C    14.68999958  11.72999954  48.34999847
C     4.92000008  13.67000008  49.59000015
H     4.68354607  13.16927433  48.65113831
H     8.98999977  12.25999928  47.15999985
H    11.00999928  13.93000031  51.53999710
H     8.63000011  14.52000046  52.19999695
H     6.25999975  14.44000053  51.81999969
H     6.84999990  12.79000092  47.93000031
H    15.13000011  11.28000069  47.45999908
H     4.65000010  14.73999977  49.54000092
H     4.23999977  13.34000015  50.38999939
