96

S    12.69000053  16.38000107  44.22000122
C     9.94999981  16.64999962  44.88999939
C    11.28000069  16.32999992  45.28999710
C    11.63000011  15.98000050  46.62000275
C    10.60999966  15.85999966  47.52999878
C     9.30000019  16.31000137  47.22000122
C     8.21000004  16.36999893  48.11999893
C     6.96000004  16.82999992  47.78999710
C     6.76000023  17.38000107  46.49000168
C     7.78999996  17.50000000  45.63000107
C     9.04999924  16.90999985  45.90999985
C    13.05999947  15.88000107  46.77999878
C    13.80000019  16.13000107  45.58000183
C    15.18000031  16.09000015  45.45000076
C     5.28999996  17.69000053  46.11999893
H     5.01636028  17.22407150  45.17335510
H     9.77000046  16.81999969  43.82999802
H    10.77999973  15.39000034  48.48999786
H     8.38999939  15.78999996  49.02000046
H     6.14000034  16.70999908  48.48999786
H     7.62000036  17.86999893  44.62999725
H    15.65000057  16.38000107  44.52000046
H     4.63999987  17.38999939  46.95000076
H     5.19000006  18.78000069  46.18999863
S    16.27000046  14.78999996  49.06999969
C    18.92000008  14.32000065  48.23999786
C    17.65999985  14.80999947  47.95000076
C    17.31999969  15.40999985  46.72999954
C    18.34000015  15.60999966  45.79000092
C    19.64999962  15.11000061  45.96000290
C    20.69000053  15.24000072  45.00999832
C    21.96000099  14.75999928  45.27999878
C    22.20999908  14.23999977  46.58000183
C    21.24000168  14.06999969  47.44999695
C    19.86999893  14.48999977  47.22000122
C    15.92000008  15.67000008  46.59000015
C    15.14999962  15.44000053  47.81000137
C    13.78000069  15.57999992  47.91999817
C    23.59999847  13.82999992  46.95999908
H    23.83972359  14.34577370  47.88984299
H    19.12999916  13.82999992  49.19000244
H    18.11000061  15.97000027  44.79000092
H    20.48999977  15.76000023  44.08000183
H    22.73999977  14.88000011  44.52000046
H    21.40999985  13.81000042  48.48999786
H    13.43999958  15.38000011  48.93000031
H    24.23000145  14.09999943  46.11000061
H    23.75999832  12.77999973  47.22000122
S    15.90000057  12.30999947  52.25000000
C    18.63000107  11.65999985  51.46999741
C    17.23999977  11.75000000  51.18999863
C    16.75000000  11.35000038  49.89999771
C    17.57999992  10.95999908  48.85000229
C    19.00000000  11.00000000  49.10999680
C    19.93999863  10.39999962  48.22999954
C    21.25000000  10.25000000  48.55999756
C    21.70000076  10.69000053  49.82999802
C    20.86000061  11.23000050  50.77000046
C    19.50000000  11.35000038  50.40999985
C    15.34999943  11.69000053  49.72999954
C    14.75999928  12.10999966  50.94999695
C    13.47000027  12.60000038  51.06999969
C    23.16999817  10.36999893  50.13000107
H    23.42885017  10.75477791  51.11642838
H    19.07999992  11.95000076  52.41000366
H    17.21999931  10.31000042  48.06000137
H    19.52000046   9.86999989  47.38999939
H    21.96000099   9.72999954  47.91999817
H    21.25000000  11.50000000  51.75000000
H    13.04999924  13.02000046  51.97999954
H    23.22999954   9.26999950  50.10000229
H    23.85000038  10.72000027  49.34000015
S    12.00000000  11.73999977  47.47000122
C     9.39999962  12.46999931  48.27000046
C    10.73999977  12.30999947  48.55999756
C    11.21000099  12.71999931  49.80999756
C    10.34999943  13.17999935  50.81999969
C     8.97999954  13.30000019  50.54999924
C     8.03999996  13.88000011  51.43000031
C     6.71000004  14.01999950  51.14999771
C     6.23000050  13.67000008  49.85000229
C     7.11999989  13.15000057  48.96999741
C     8.47999954  12.93000031  49.26000214
C    12.69000053  12.46999931  49.91000366
C    13.22000027  11.97000027  48.68999863
C    14.55999947  11.56000042  48.61999893
C     4.76999998  13.89000034  49.45000076
H     4.62215042  13.48165321  48.45025253
H     8.97000027  12.17000008  47.31999969
H    10.73999977  13.22000027  51.83000183
H     8.36999989  14.11999893  52.43000031
H     6.14000034  14.48999977  51.93999863
H     6.81999969  13.05999947  47.91999817
H    14.93000031  11.13000011  47.69000244
H     4.59000015  14.96999931  49.50000000
H     4.19999981  13.30000019  50.18000031
