96

S    12.20000076  16.53000069  44.10999680
C     9.51000023  17.01000023  44.86999893
C    10.73999977  16.50000000  45.15999603
C    11.10999966  16.09000015  46.52000046
C    10.18000031  16.25000000  47.56999969
C     8.88000011  16.75000000  47.29000092
C     7.90000010  16.87000084  48.29000092
C     6.61000013  17.27000046  47.97000122
C     6.37000036  17.69000053  46.62000275
C     7.31999969  17.76000023  45.66999817
C     8.55000019  17.07999992  45.90999985
C    12.55000019  15.88999939  46.69000244
C    13.27999973  16.10000038  45.45999908
C    14.67000008  16.05999947  45.34999847
C     5.05000019  18.27999878  46.30000305
H     4.60076237  17.71327019  45.48446274
H     9.30999947  17.47999954  43.90999603
H    10.48999977  15.98999977  48.59000397
H     8.15999985  16.53000069  49.29000092
H     5.79999971  17.23999977  48.68999863
H     7.20000029  18.30000114  44.72999954
H    15.18000031  16.26000023  44.40999985
H     4.38000011  18.31999969  47.16999817
H     5.15999985  19.31999969  45.97000122
S    15.77999973  15.01999950  49.01000214
C    18.45000076  14.68000031  48.36000061
C    17.20999908  15.06999969  48.00000000
C    16.82999992  15.44000053  46.70000076
C    17.80999947  15.42000008  45.77000046
C    19.11999893  15.06999969  46.04000092
C    20.15999985  15.08999920  45.04000092
C    21.42000008  14.57999992  45.38000107
C    21.70999908  14.18000031  46.70000076
C    20.69000053  14.17000008  47.63000107
C    19.44000053  14.65999985  47.38999939
C    15.40999985  15.71000004  46.52000046
C    14.68000031  15.44000053  47.68000031
C    13.27999973  15.62000084  47.87000275
C    23.05999947  13.92000008  47.14000320
H    23.36518860  14.56586456  47.96329880
H    18.71000099  14.29999924  49.34999847
H    17.67000008  15.70000076  44.72999954
H    19.93999863  15.27999973  44.00000000
H    22.07999992  14.37000084  44.54000092
H    20.95999908  13.83999920  48.62999725
H    12.76999950  15.54999924  48.81999969
H    23.75000000  14.07999992  46.31000137
H    23.25000000  12.86999893  47.39999771
S    16.10000038  12.76999950  52.31999969
C    18.68000031  12.10999966  51.59000015
C    17.38999939  12.20999908  51.25000000
C    16.86000061  11.80999947  49.97000122
C    17.71999931  11.39000034  48.95999908
C    19.09000015  11.23999977  49.27000046
C    20.03999901  10.76000023  48.34000015
C    21.32999802  10.84000015  48.59000397
C    21.73999977  11.03999996  49.92000198
C    20.94000053  11.59000015  50.89000320
C    19.60000038  11.67000008  50.56999969
C    15.44000053  11.92000008  49.88999939
C    14.78999996  12.38000011  51.09000397
C    13.45000076  12.79999924  51.12999725
C    23.28000069  10.72999954  50.27000046
H    23.55570984  10.95492172  51.30028915
H    18.97999954  12.39999962  52.58999634
H    17.28999901  11.16000080  47.98999786
H    19.71999931  10.44999981  47.35000229
H    22.00000000  10.59000015  47.77000046
H    21.31000137  11.84000015  51.88000107
H    13.04999924  13.38000107  51.95999908
H    23.46999931   9.72000027  49.89999771
H    23.90000153  11.39999962  49.65999985
S    12.03999996  11.96000004  47.47000122
C     9.43000031  12.97999954  48.18999863
C    10.77999973  12.64999962  48.50999832
C    11.28999901  12.98999977  49.80999756
C    10.47999954  13.52000046  50.81999969
C     9.10000038  13.66000080  50.51000214
C     8.22000027  14.18000031  51.45000076
C     6.88000011  14.35999966  51.25000000
C     6.38999987  14.09999943  49.95999908
C     7.17999983  13.69999981  48.88999939
C     8.52999973  13.43999958  49.13000107
C    12.69999981  12.69999981  49.94999695
C    13.25000000  12.23999977  48.73000336
C    14.61999989  11.90999985  48.74000168
C     4.92000008  14.32000065  49.68999863
H     4.75566912  14.11280060  48.63256454
H     9.19000053  12.71999931  47.15999985
H    10.72000027  13.76999950  51.84999847
H     8.78999996  14.48999977  52.32999802
H     6.25000000  14.68999958  52.06999969
H     6.81999969  13.55000019  47.88000107
H    15.07999992  11.42000008  47.88999939
H     4.76000023  15.32999992  50.08999634
H     4.25000000  13.63000011  50.21999741
