96

S    12.30000019  16.79999924  44.27999878
C     9.56999969  16.90000153  45.00999832
C    10.90999985  16.72000122  45.37000275
C    11.28999901  16.55999947  46.72999954
C    10.31000042  16.53000069  47.65999603
C     8.96000004  16.57999992  47.29000092
C     7.96999979  16.67000008  48.29999924
C     6.71999979  17.19000053  47.90999985
C     6.30999994  17.47999954  46.50000000
C     7.26999998  17.35000038  45.56000137
C     8.59000015  16.94000053  45.97999954
C    12.71000004  16.44000053  46.86999893
C    13.38000107  16.50000000  45.59999847
C    14.75999928  16.60000038  45.59000015
C     4.88999987  17.81999969  46.12999725
H     4.58884954  17.48212242  45.13840866
H     9.22999954  17.26000023  44.03999710
H    10.52000046  16.34000015  48.70999908
H     8.19999981  16.52000046  49.34999847
H     5.92000008  17.28999901  48.63999939
H     7.09999990  17.78000069  44.56999969
H    15.26000023  16.67000008  44.62999725
H     4.19999981  17.43999863  46.90000153
H     4.85000038  18.90999985  46.13999939
S    15.95000076  15.44999981  49.27999878
C    18.47999954  14.85999966  48.47999954
C    17.27000046  15.36000061  48.15000153
C    16.95000076  16.03999901  46.93000031
C    17.93000031  15.98999977  45.97000122
C    19.15999985  15.39999962  46.18999863
C    20.20000076  15.50000000  45.25000000
C    21.52000046  15.18000031  45.52999878
C    21.81999969  14.61999989  46.79999924
C    20.81999969  14.39000034  47.70000076
C    19.47999954  14.80999947  47.44999695
C    15.57000065  16.45000076  46.79999924
C    14.88000011  16.13999939  48.00000000
C    13.45999908  16.21000099  48.06000137
C    23.18000031  14.23999977  47.15000153
H    23.53803062  14.80261707  48.01219559
H    18.68999863  14.40000057  49.45000076
H    17.70000076  16.28999901  44.94999695
H    19.86999893  16.00000000  44.34000015
H    22.39999962  15.47999954  44.97000122
H    21.01000023  13.94999981  48.67000198
H    12.86000061  15.92000008  48.92000198
H    23.81999969  14.32999992  46.25999832
H    23.29000092  13.17999935  47.39999771
S    12.15000057  17.05999947  51.25000000
C     9.48000050  17.51000023  51.91999817
C    10.70000076  16.97000122  52.27000427
C    11.02000046  16.55999947  53.62999725
C     9.92000008  16.48999977  54.51000214
C     8.64000034  16.84999847  54.15000153
C     7.59000015  16.68000031  55.04000092
C     6.34999990  16.95000076  54.64000320
C     6.05999994  17.57999992  53.44999695
C     7.11999989  17.84000015  52.57999802
C     8.42000008  17.38000107  52.84999847
C    12.50000000  16.51000023  53.82999802
C    13.15000057  16.55999947  52.56999969
C    14.51000023  16.47999954  52.44999695
C     4.67000008  18.04000092  53.15999985
H     4.23512554  17.38768959  52.40272141
H     9.34000015  17.94999886  50.93999863
H    10.11999989  16.11999893  55.52000046
H     7.77999973  16.21000099  56.00999832
H     5.52999973  16.79000092  55.34000015
H     6.93000031  18.30000114  51.60999680
H    15.07999992  16.64999962  51.53999710
H     3.98000002  17.95999908  54.01000214
H     4.56999969  19.07999992  52.81000137
S    15.65999985  15.59000015  56.11000061
C    18.27999878  14.98999977  55.20000076
C    17.04000092  15.51000023  55.01999664
C    16.62999916  16.07999992  53.72000122
C    17.56999969  16.25000000  52.69000244
C    18.85000038  15.65999985  52.84999847
C    19.84000015  15.67000008  51.86000061
C    21.05999947  15.18000031  52.08000183
C    21.42000008  14.85000038  53.40000153
C    20.52000046  14.86999989  54.40000153
C    19.17000008  15.13000011  54.13999939
C    15.21999931  16.31000137  53.61999893
C    14.57999992  16.04999924  54.82999802
C    13.22000027  16.14999962  54.93999863
C    22.85000038  14.55000019  53.66000366
H    23.21568489  14.95788097  54.60234451
H    18.67000008  14.37999916  56.00999832
H    17.26000023  16.70999908  51.76000214
H    19.62000084  16.18000031  50.91999817
H    21.83000183  15.29000092  51.31999969
H    20.81000137  14.65000057  55.43000031
H    12.72999954  15.84000015  55.84999847
H    23.50000000  14.84000015  52.81999969
H    23.09000015  13.48000050  53.74000168
