96

S    12.28999996  16.82999992  44.16999817
C     9.64999962  17.11000061  44.84000397
C    10.90999985  16.76000023  45.21999741
C    11.18999958  16.39999962  46.55000305
C    10.26000023  16.27000046  47.50000000
C     8.97000027  16.63999939  47.11999893
C     7.88999987  16.39999962  47.95000076
C     6.63000011  16.79000092  47.56999969
C     6.42000008  17.43999863  46.36000061
C     7.36999989  17.59000015  45.44000244
C     8.59000015  16.97999954  45.79000092
C    12.64000034  16.28999901  46.73999786
C    13.31999969  16.54000092  45.56000137
C    14.70999908  16.45000076  45.47000122
C     4.98000002  17.80999947  45.98999786
H     4.62524652  17.26700974  45.11397552
H     9.39999962  17.46000099  43.83999634
H    10.39999962  15.81999969  48.47999954
H     8.07999992  16.02000046  48.95000076
H     5.84999990  16.40999985  48.22000122
H     7.14999962  18.05999947  44.48999786
H    15.27999973  16.39999962  44.54999924
H     4.42000008  17.63000107  46.90999985
H     4.88999987  18.88000107  45.75000000
S    15.81999969  15.52999973  49.15999985
C    18.46999931  14.92000008  48.41999817
C    17.23999977  15.47999954  48.09000015
C    16.88999939  15.95999908  46.79000092
C    17.93000031  16.10000038  45.86000061
C    19.17000008  15.47999954  46.22000122
C    20.10999870  15.32999992  45.22999573
C    21.35000038  14.75999928  45.47000122
C    21.77000046  14.48999977  46.79999924
C    20.82999992  14.55000019  47.78999710
C    19.48999977  14.92000008  47.45999908
C    15.47999954  16.23999977  46.62000275
C    14.78999996  15.98999977  47.83000183
C    13.36999989  16.06999969  47.93000031
C    23.18000031  14.17000008  47.23999786
H    23.35936165  14.57177067  48.23724747
H    18.64999962  14.47999954  49.40000153
H    17.64000130  16.34000015  44.84000397
H    19.85000038  15.81999969  44.29999924
H    21.97000122  14.61999989  44.58000183
H    20.97999954  14.14999962  48.79000092
H    12.90999985  15.90000057  48.89999771
H    23.95000076  14.52000046  46.53999710
H    23.22000122  13.07999992  47.36999893
S    16.10000038  12.81999969  52.15999985
C    18.70000076  12.11999989  51.39999771
C    17.38999939  12.20999908  51.11000061
C    16.79999924  11.80999947  49.86999893
C    17.69000053  11.44999981  48.80000305
C    19.06999969  11.38000011  49.08000183
C    20.03000069  11.05000019  48.06999969
C    21.38999939  11.13000011  48.30999756
C    21.84000015  11.23999977  49.68000031
C    20.88999939  11.54000092  50.72999954
C    19.55999947  11.72000027  50.37000275
C    15.47000027  12.27000046  49.72000122
C    14.88999939  12.76999950  50.94999695
C    13.56999969  13.21000004  51.02000427
C    23.26999855  11.03999996  49.95999908
H    23.53049850  11.11040401  51.01606750
H    19.11000061  12.41000080  52.36999893
H    17.22999954  11.30000019  47.83000183
H    19.71999931  10.52000046  47.16999817
H    21.97999954  10.80999947  47.44999695
H    20.96999931  11.71000004  51.79999924
H    13.15999985  13.55000019  51.95999908
H    23.48999977  10.08999920  49.47000122
H    23.81999969  11.77000046  49.36000061
S    12.10000038  12.15999985  47.37999725
C     9.52000046  12.74000072  48.29000092
C    10.88999939  12.77999973  48.53000259
C    11.35000038  13.27000046  49.75999832
C    10.46000004  13.53999996  50.79000092
C     9.11000061  13.45999908  50.56000137
C     8.18000031  13.73000050  51.63999939
C     6.81999969  13.73000050  51.46999741
C     6.25999975  13.43000031  50.19000244
C     7.14999962  13.09999943  49.13000107
C     8.60000038  13.12999916  49.29000092
C    12.79999924  13.15000057  49.81999969
C    13.36999989  12.57999992  48.60000229
C    14.70999908  12.15000057  48.54999924
C     4.82999992  13.69999981  49.75000000
H     4.70644188  13.69273186  48.66704941
H     9.25000000  12.31999969  47.32999802
H    10.93999958  13.83999920  51.72000122
H     8.67000008  13.96000004  52.57999802
H     6.14000034  13.88000011  52.29999924
H     6.83000040  12.79999924  48.13999939
H    15.11999989  11.72999954  47.63000107
H     4.57999992  14.75000000  49.94999695
H     4.15000010  13.07999992  50.34000015
