96

S    12.32999992  16.28000069  44.18000031
C     9.72000027  16.97999954  44.85000229
C    10.95999908  16.51000023  45.20999908
C    11.23999977  16.11999893  46.58000183
C    10.26000023  16.18000031  47.55000305
C     8.92000008  16.72999954  47.27000427
C     7.79999971  16.72000122  48.13999939
C     6.57999992  17.17000008  47.75000000
C     6.35999966  17.52000046  46.42000198
C     7.44999981  17.60000038  45.52000046
C     8.71999931  17.14999962  45.87999725
C    12.67000008  15.88999939  46.75000000
C    13.43999958  16.11999893  45.50000000
C    14.84000015  16.03999901  45.40000153
C     5.00999975  17.97000122  45.80999756
H     4.74991417  17.43577003  44.89618683
H     9.53999996  17.29999924  43.81999969
H    10.46000004  15.81999969  48.54999924
H     7.83999968  16.22999954  49.09999847
H     5.79999971  17.15999985  48.50999832
H     7.31999969  17.79999924  44.47000122
H    15.29999924  16.29999924  44.45000076
H     4.19000006  17.86000061  46.52999878
H     5.13000011  19.04000092  45.63999939
S    15.90000057  15.15999985  49.16999817
C    18.67000008  14.88999939  48.34999847
C    17.35000038  15.14999962  48.00000000
C    16.97999954  15.43000031  46.63999939
C    18.04999924  15.70000076  45.77000046
C    19.38999939  15.38000011  46.00999832
C    20.48000145  15.40999985  45.07999802
C    21.83000183  15.26000023  45.52000046
C    22.04999924  14.73999977  46.79000092
C    21.02999878  14.47000027  47.70999908
C    19.65999985  14.89999962  47.32999802
C    15.57000065  15.62999916  46.53999710
C    14.81999969  15.47000027  47.77999878
C    13.43999958  15.60999966  47.88000107
C    23.40999985  14.40000057  47.18999863
H    23.71235466  14.85704899  48.13222504
H    18.95000076  14.48999977  49.31999969
H    17.84000015  16.07999992  44.77000427
H    20.26000023  15.64000034  44.03999710
H    22.62000084  15.34999943  44.77000427
H    21.21999931  13.97999954  48.66000366
H    13.04999924  15.52000046  48.88999939
H    24.04999924  14.86999989  46.42000198
H    23.57999992  13.31999969  47.21000290
S    11.92000008  17.00000000  50.72999954
C     9.27999973  17.28999901  51.51000214
C    10.52999973  16.84999847  51.81000137
C    10.81999969  16.46999931  53.15999985
C     9.84000015  16.46000099  54.13999939
C     8.50000000  16.84000015  53.82999802
C     7.42999983  16.84999847  54.78000259
C     6.19999981  17.38999939  54.36999893
C     5.91000032  17.65999985  52.95999908
C     6.98999977  17.69000053  52.06999969
C     8.28999996  17.30999947  52.51999664
C    12.28999996  16.23999977  53.33000183
C    12.98999977  16.47999954  52.06999969
C    14.39000034  16.40999985  51.97000122
C     4.53000021  18.06999969  52.60000229
H     4.11287928  17.45529556  51.80234909
H     9.18000031  17.88999939  50.59999847
H    10.11000061  16.03999901  55.10000229
H     7.50999975  16.44000053  55.77999878
H     5.40999985  17.32999992  55.12000275
H     6.90000010  17.93000031  51.02000427
H    14.85999966  16.60000038  51.00999832
H     3.77999997  18.15999985  53.39000320
H     4.69000006  19.10000038  52.25000000
S    15.42000008  15.60999966  55.65000153
C    18.12999916  14.98999977  55.02999878
C    16.92000008  15.50000000  54.61000061
C    16.62999916  15.97000027  53.26000214
C    17.71999931  15.98000050  52.39999771
C    18.97999954  15.52000046  52.84000015
C    19.98999977  15.50000000  51.86999893
C    21.25999832  14.96000099  52.21000290
C    21.42999840  14.40000057  53.48999786
C    20.43000031  14.40999985  54.43000031
C    19.19999886  15.00000000  54.12000275
C    15.15999985  16.10000038  53.09999847
C    14.51000023  15.97000027  54.31000137
C    13.07999992  15.95999908  54.43999863
C    22.80999947  14.11999893  53.99000168
H    23.13665199  14.69519520  54.85634232
H    18.27000046  14.63000107  56.04999924
H    17.67000008  16.09000015  51.31999969
H    19.84000015  15.93999958  50.89000320
H    22.14999962  15.03999901  51.59999847
H    20.51000214  14.04000092  55.45000076
H    12.57999992  15.72000027  55.37000275
H    23.47999954  14.42000008  53.18000031
H    23.02000046  13.05999947  54.20000076
