96

S    12.10999966  16.67000008  44.00000000
C     9.55000019  17.01000023  44.61000061
C    10.78999996  16.81999969  45.10000229
C    11.10000038  16.35000038  46.35000229
C    10.01999950  16.32999992  47.25000000
C     8.73999977  16.80999947  46.93999863
C     7.63999987  16.80999947  47.81000137
C     6.42000008  17.39999962  47.45999908
C     6.23000050  17.86999893  46.07999802
C     7.25000000  17.77000046  45.19000244
C     8.52999973  17.21999931  45.59000015
C    12.50000000  16.06999969  46.56999969
C    13.17000008  16.21000099  45.43000031
C    14.55000019  16.06999969  45.38999939
C     4.81999969  18.27000046  45.59999847
H     4.44470644  17.58196259  44.84246445
H     9.51000023  17.34000015  43.56999969
H    10.19000053  15.80000019  48.18999863
H     7.82000017  16.39999962  48.80000305
H     5.63000011  17.40999985  48.20000076
H     7.13000011  17.90999985  44.12000275
H    15.03999901  16.31999969  44.45999908
H     4.21000004  18.29000092  46.51000214
H     4.88000011  19.31999969  45.28999710
S    15.65000057  15.10000038  49.09000015
C    18.37000084  15.01000023  48.40000153
C    17.12000084  15.36999893  48.06000137
C    16.69000053  15.70000076  46.75000000
C    17.71000099  15.88999939  45.77999878
C    19.01000023  15.48999977  46.11000061
C    20.10999870  15.59999943  45.19000244
C    21.31999969  15.21999931  45.59000015
C    21.61999893  14.81999969  46.90000153
C    20.66999817  14.68000031  47.81000137
C    19.37999916  15.06000042  47.49000168
C    15.29999924  15.77000046  46.52999878
C    14.60999966  15.52999973  47.70000076
C    13.23999977  15.62000084  47.75000000
C    23.00000000  14.39000034  47.31999969
H    23.24322319  14.89075089  48.25711823
H    18.54999924  14.55000019  49.36999893
H    17.43999863  16.10999870  44.75000000
H    19.95000076  16.00000000  44.19000244
H    22.15999985  15.27999973  44.89999771
H    20.88000107  14.46000004  48.85000229
H    12.77999973  15.31999969  48.68000031
H    23.65999985  14.52000046  46.45000076
H    23.00000000  13.30999947  47.50000000
S    11.90999985  16.94000053  50.98999786
C     9.18000031  17.32999992  51.77000046
C    10.46000004  16.93000031  52.08000183
C    10.82999992  16.51000023  53.40000153
C     9.86999989  16.51000023  54.38999939
C     8.52999973  16.82999992  54.10999680
C     7.42999983  16.77000046  55.05000305
C     6.14000034  17.02999878  54.69999695
C     5.82000017  17.51000023  53.43999863
C     6.78999996  17.63000107  52.50000000
C     8.19000053  17.32999992  52.78999710
C    12.28999996  16.31000137  53.59000397
C    12.97000027  16.60000038  52.29999924
C    14.40000057  16.47999954  52.21000290
C     4.42000008  17.72999954  53.06999969
H     4.10839415  17.22450638  52.15595627
H     8.86999989  17.53000069  50.75000000
H    10.11000061  15.98000050  55.31000137
H     7.69000006  16.34000015  56.00999832
H     5.35000038  16.72999954  55.38000107
H     6.56000042  17.92000008  51.47999573
H    15.00000000  16.63999939  51.31999969
H     3.81999993  17.35999870  53.90999603
H     4.17000008  18.78999901  53.04000092
S    15.47000027  15.34999943  56.02000427
C    18.01000023  14.93999958  55.18000031
C    16.77000046  15.34999943  54.84000397
C    16.47999954  15.80999947  53.50999832
C    17.54999924  15.92000008  52.60000229
C    18.89999962  15.51000023  52.90000153
C    19.96000099  15.54999924  52.02999878
C    21.21999931  15.19999981  52.39999771
C    21.38000107  14.70999908  53.73000336
C    20.36000061  14.67000008  54.59999847
C    19.09000015  15.00000000  54.20999908
C    15.06999969  16.05999947  53.40000153
C    14.40000057  15.84000015  54.65000153
C    13.01000023  16.06999969  54.75000000
C    22.82999992  14.35999966  54.10999680
H    23.03177071  14.79236317  55.09002304
H    18.27999878  14.65999985  56.18999863
H    17.32999992  16.26000023  51.59000015
H    19.73999977  16.06999969  51.10000229
H    22.03000069  15.39000034  51.69000244
H    20.55999947  14.34000015  55.61000061
H    12.48999977  16.09000015  55.70000076
H    23.40999985  14.85999966  53.31999969
H    23.08000183  13.28999996  53.99000168
