96

S    12.35000038  16.90000153  44.43000031
C     9.64999962  17.20000076  45.20000076
C    10.95999908  16.87000084  45.54000092
C    11.36000061  16.47999954  46.84000015
C    10.31000042  16.32999992  47.78999710
C     8.93999958  16.65999985  47.54000092
C     7.88000011  16.54999924  48.54000092
C     6.56000042  16.79000092  48.11999893
C     6.28999996  17.25000000  46.77000046
C     7.27999973  17.40999985  45.84999847
C     8.60999966  17.11000061  46.16000366
C    12.79999924  16.35000038  46.93000031
C    13.47000027  16.50000000  45.70000076
C    14.88000011  16.51000023  45.61000061
C     4.90000010  17.70000076  46.50000000
H     4.52815104  17.27711296  45.56673050
H     9.39999962  17.63000107  44.22999954
H    10.57000065  15.98999977  48.79000092
H     8.05999947  16.32999992  49.59000015
H     5.73999977  16.59000015  48.80000305
H     7.07999992  17.79000092  44.85000229
H    15.40999985  16.60000038  44.66999817
H     4.34999990  17.28000069  47.35000229
H     4.75000000  18.78000069  46.56999969
S    16.13999939  15.39999962  49.22000122
C    18.72999954  15.26999950  48.44999695
C    17.47999954  15.55999947  48.09999847
C    17.09000015  16.14999962  46.81000137
C    18.12000084  16.25000000  45.90000153
C    19.43000031  15.76000023  46.12999725
C    20.45999908  15.72999954  45.17000198
C    21.70999908  15.26000023  45.56999969
C    22.07999992  14.93999958  46.88999939
C    21.11000061  14.98000050  47.85999680
C    19.80999947  15.29000092  47.45999908
C    15.64000034  16.36000061  46.79000092
C    14.96000099  15.98999977  47.98999786
C    13.59000015  16.03999901  48.06999969
C    23.52000046  14.65000057  47.22000122
H    23.83136940  14.78758240  48.25548172
H    18.89999962  14.98999977  49.48999786
H    17.80999947  16.45000076  44.87999725
H    20.38000107  16.26000023  44.22000122
H    22.53999901  15.15999985  44.87999725
H    21.30000114  14.77000046  48.90999603
H    13.10999966  15.85000038  49.02999878
H    24.11000061  15.34000015  46.60999680
H    23.71999931  13.63999939  46.84000015
S    12.20000076  17.22999954  51.05999756
C     9.48000050  17.51000023  51.68000031
C    10.72999954  17.05000114  52.04999924
C    10.93999958  16.23999977  53.22999954
C     9.89000034  16.10000038  54.10999680
C     8.64999962  16.72999954  53.86000061
C     7.53999996  16.63999939  54.77000427
C     6.25999975  17.05999947  54.47000122
C     6.07999992  17.77000046  53.23999786
C     7.17000008  17.90999985  52.39999771
C     8.42000008  17.30999947  52.61000061
C    12.44999981  16.13999939  53.40999985
C    13.20000076  16.54999924  52.28000259
C    14.52000046  16.39999962  52.15999985
C     4.65999985  18.12999916  52.74000168
H     4.24875212  17.57481575  51.89694595
H     9.43000031  18.37000084  51.00999832
H    10.01000023  15.53999996  55.02999878
H     7.69999981  16.21999931  55.76000214
H     5.44000053  17.02999878  55.18000031
H     7.00000000  18.51000023  51.51000214
H    15.07999992  16.77000046  51.30000305
H     3.96000004  18.01000023  53.57999802
H     4.63000011  19.20999908  52.51999664
S    15.36999893  14.96000099  55.83000183
C    18.02000046  14.48999977  55.20999908
C    16.82999992  14.98999977  54.84000397
C    16.61999893  15.60999966  53.54999924
C    17.77000046  15.85000038  52.77000046
C    18.97999954  15.32999992  53.09000015
C    20.06000137  15.53999996  52.23999786
C    21.25000000  15.05000019  52.63000107
C    21.50000000  14.30999947  53.81999969
C    20.48000145  14.18000031  54.71000290
C    19.15999985  14.61999989  54.34999847
C    15.19000053  15.86999989  53.33000183
C    14.46000004  15.50000000  54.47000122
C    13.09999943  15.72000027  54.54999924
C    22.92000008  14.02999973  54.22999954
H    23.15034676  14.66345692  55.08660507
H    18.15999985  13.94000053  56.13999939
H    17.72999954  16.56999969  51.95000076
H    19.96999931  16.27000046  51.44000244
H    22.14999962  15.26000023  52.05999756
H    20.53999901  13.82999992  55.72999954
H    12.58999920  15.36000061  55.44000244
H    23.54000092  14.32000065  53.37999725
H    23.11000061  13.00000000  54.55999756
