96

S    16.72999954   8.89999962  58.40999985
C    19.43000031   8.85000038  57.72999573
C    18.12999916   8.61999989  57.36000061
C    17.76000023   8.27999973  56.00999832
C    18.79999924   8.09000015  55.12000275
C    20.13999939   8.46000004  55.38000107
C    21.15999985   8.38999939  54.38999939
C    22.46000099   8.75000000  54.64000320
C    22.73999977   9.23999977  55.93999863
C    21.78999901   9.22000027  56.95000076
C    20.45000076   8.82000065  56.73999786
C    16.31999969   8.32999992  55.79999924
C    15.65999985   8.64000034  57.01000214
C    14.27999973   8.75000000  57.09999847
C    24.18000031   9.63000011  56.14999771
H    24.72096443   8.96802998  56.82620239
H    19.62000084   9.06000042  58.77999878
H    18.53000069   7.69999981  54.13999939
H    20.88000107   8.07999992  53.39000320
H    23.26000023   8.73999977  53.89999771
H    22.17000008   9.56999969  57.90999985
H    13.96999931   9.00000000  58.11000061
H    24.76000023   9.72999954  55.21999741
H    24.18999863  10.59999943  56.66999817
S    13.07999992   7.79999971  53.40000153
C    10.43000031   7.59000015  54.20000076
C    11.72999954   7.83999968  54.54999924
C    12.06999969   8.36999989  55.84000015
C    11.05999947   8.60000038  56.77000046
C     9.72000027   8.28999996  56.44000244
C     8.69000053   8.19999981  57.42000198
C     7.37999964   7.99000025  57.06999969
C     7.04999971   7.44000006  55.79999924
C     8.07999992   7.23999977  54.91000366
C     9.39999962   7.72000027  55.15999603
C    13.50999928   8.47999954  55.94999695
C    14.18000031   8.19000053  54.73999786
C    15.55999947   8.10999966  54.65000153
C     5.63000011   7.11000013  55.40000153
H     5.22533655   7.67794847  54.56227875
H    10.19999981   7.36999989  53.15999985
H    11.46000004   8.82999992  57.75000000
H     8.89000034   8.43000031  58.47000122
H     6.60000038   8.26000023  57.77000046
H     7.88999987   6.93000031  53.88999939
H    16.06999969   7.78999996  53.74000168
H     4.97000027   7.14999962  56.26999664
H     5.66999960   6.05000019  55.13000107
S    13.60000038   5.55000019  50.61000061
C    10.93000031   5.09999990  51.18999863
C    12.23999977   4.88000011  51.53999710
C    12.72999954   4.30000019  52.76000214
C    11.75000000   3.79999995  53.59000397
C    10.38000011   3.88000011  53.23999786
C     9.36999989   3.40999985  54.13000107
C     8.05000019   3.56999993  53.77999878
C     7.63999987   4.33999968  52.65999603
C     8.56999969   4.86999989  51.79999924
C     9.94000053   4.59999990  52.06999969
C    14.17000008   4.44000006  52.90000153
C    14.80000019   5.14999962  51.84999847
C    16.17000008   5.42000008  51.81999969
C     6.17000008   4.65999985  52.50000000
H     5.77066135   4.21787500  51.58722687
H    10.64000034   5.77000046  50.38000107
H    12.05000019   3.28000021  54.50000000
H     9.67000008   3.12000012  55.13000107
H     7.23999977   3.19000006  54.40000153
H     8.34999943   5.42000008  50.89000320
H    16.68000031   5.84000015  50.96000290
H     5.55999994   4.41000032  53.36999893
H     6.05000019   5.73999977  52.36000061
S    17.47999954   3.74000025  55.18000031
C    20.19000053   4.13000011  54.43000031
C    18.84000015   4.28000021  54.16999817
C    18.38999939   5.01999950  53.04000092
C    19.27000046   5.58000040  52.12999725
C    20.65999985   5.38999987  52.34000397
C    21.59000015   6.06999969  51.51000214
C    22.93000031   6.00000000  51.81999969
C    23.40999985   5.29999971  52.95999908
C    22.50000000   4.71000004  53.80000305
C    21.11000061   4.67000008  53.50000000
C    16.94000053   4.99000025  52.90000153
C    16.31000137   4.30999994  53.96999741
C    14.94999981   4.01999998  53.99000168
C    24.89999962   5.13999987  53.20000076
H    25.24349785   5.39762354  54.20186996
H    20.43000031   3.81000018  55.44000244
H    19.01000023   6.01999998  51.17000198
H    21.15999985   6.61999989  50.68000031
H    23.74000168   6.57000017  51.37000275
H    22.70999908   4.21000004  54.73999786
H    14.52999973   3.48000002  54.82999802
H    25.46999931   5.77000046  52.50000000
H    25.13999939   4.07999992  53.02999878
