96

S    16.79999924   8.71000004  58.15999985
C    19.51000023   8.89999962  57.31999969
C    18.20999908   8.51000023  57.09999847
C    17.84000015   8.06999969  55.77999878
C    18.84000015   7.88000011  54.84000397
C    20.20000076   8.19999981  55.06999969
C    21.25000000   7.95000029  54.15000153
C    22.53000069   8.38000011  54.45999908
C    22.86000061   9.10000038  55.63000107
C    21.86000061   9.25000000  56.56000137
C    20.52999878   8.80000019  56.33999634
C    16.39999962   7.94000053  55.68000031
C    15.67999935   8.34999943  56.84000015
C    14.29999924   8.52000046  56.81999969
C    24.21999931   9.73999977  55.75000000
H    24.71177864   9.18407631  56.54824829
H    19.72999954   9.34000015  58.29000092
H    18.63000107   7.48000050  53.85000229
H    21.01000023   7.63999987  53.13999939
H    23.31999969   8.27999973  53.72000122
H    22.09000015   9.64999962  57.55000305
H    13.73999977   8.84000015  57.70000076
H    24.82000160   9.75000000  54.82999802
H    24.11000061  10.80000019  56.00999832
S    13.17999935   7.30999994  53.22000122
C    10.46000004   7.26000023  53.89999771
C    11.75000000   7.59999990  54.22999954
C    12.15000057   8.05000019  55.52999878
C    11.18000031   8.13000011  56.52000046
C     9.84000015   7.82999992  56.18000031
C     8.78999996   7.96999979  57.12999725
C     7.46999979   7.73999977  56.84000015
C     7.16000032   7.26000023  55.54999924
C     8.06999969   7.16000032  54.52000046
C     9.42000008   7.42000008  54.86999893
C    13.59000015   8.11999989  55.68999863
C    14.29999924   7.60999966  54.56999969
C    15.69000053   7.64999962  54.51000214
C     5.73000002   6.85999966  55.26000214
H     5.28118610   7.36580610  54.40511703
H    10.17000008   6.94999981  52.90000153
H    11.44999981   8.39999962  57.52999878
H     9.15000057   8.38999939  58.06999969
H     6.67000008   7.92000008  57.56000137
H     7.69999981   7.09000015  53.50000000
H    16.20000076   7.53999996  53.55999756
H     5.32999992   7.22000027  56.22000122
H     5.51999998   5.78000021  55.20999908
S    13.89000034   5.40000010  50.45000076
C    11.21999931   4.80999994  50.97000122
C    12.53999901   4.56999969  51.25999832
C    13.00000000   4.00999975  52.49000168
C    12.00000000   3.53999996  53.33000183
C    10.64000034   3.86999989  53.09999847
C     9.65999985   3.33999991  53.97999573
C     8.34000015   3.63000011  53.73000336
C     7.90000010   4.30000019  52.56000137
C     8.80000019   4.67000008  51.59000015
C    10.18000031   4.39000034  51.84000015
C    14.42000008   4.21000004  52.72999573
C    15.07999992   4.86999989  51.65999985
C    16.39999962   5.32000017  51.66999817
C     6.44999981   4.69000006  52.39999771
H     5.98944902   4.18693733  51.54975128
H    10.85999966   5.47999954  50.19000244
H    12.31999969   2.84999990  54.09999847
H     9.98000050   2.71000004  54.79999924
H     7.53000021   3.21000004  54.33000183
H     8.50000000   5.36000013  50.80999756
H    16.84000015   5.82999992  50.81999969
H     5.86000013   4.61000013  53.31999969
H     6.43000031   5.75999975  52.16999817
S    17.68000031   3.77999997  55.12000275
C    20.34000015   4.13999987  54.36000061
C    19.01000023   4.42999983  54.15000153
C    18.60000038   5.10999966  52.95000076
C    19.48999977   5.49000025  51.97000122
C    20.86000061   5.36000013  52.25999832
C    21.83000183   5.73000002  51.27999878
C    23.18000031   5.59999990  51.50000000
C    23.59000015   5.00000000  52.71999741
C    22.69000053   4.46000004  53.61000061
C    21.28999901   4.63999987  53.43999863
C    17.14999962   5.01999950  52.81000137
C    16.54000092   4.35999966  53.89999771
C    15.21000004   3.93000007  53.85000229
C    25.05000114   5.07999992  53.09999847
H    25.27133751   5.22993755  54.15670395
H    20.72999954   3.72000003  55.27999878
H    19.15999985   5.82999992  50.97999954
H    21.51000023   6.19999981  50.34999847
H    23.85999870   6.05999994  50.79000092
H    23.09999847   4.00999975  54.51000214
H    14.67000008   3.31999993  54.54999924
H    25.62000084   5.86999989  52.60000229
H    25.55999947   4.13000011  52.84999847
