96

S    17.20999908   8.82999992  58.27999878
C    19.93000031   8.56999969  57.60000229
C    18.60000038   8.40999985  57.27000427
C    18.26000023   7.86000013  55.98999786
C    19.27999878   7.60999966  55.08999634
C    20.63999939   7.88000011  55.37000275
C    21.68000031   7.88000011  54.38999939
C    22.98000145   8.07999992  54.79000092
C    23.35000038   8.56000042  56.06999969
C    22.34000015   8.67000008  57.00000000
C    20.98999977   8.30999947  56.70000076
C    16.80999947   7.86000013  55.90000153
C    16.06999969   8.36999989  57.00000000
C    14.68999958   8.32999992  57.15000153
C    24.71999931   9.15999985  56.35000229
H    25.17369652   8.55743504  57.13687897
H    20.15999985   9.15000057  58.48999786
H    19.04999924   7.30000019  54.08000183
H    21.47000122   7.60999966  53.36000061
H    23.72999954   7.96999979  54.02000046
H    22.60999870   9.19000053  57.90999985
H    14.27000046   8.69000053  58.08000183
H    25.29000092   9.31999969  55.43000031
H    24.56999969  10.19000053  56.70000076
S    13.53000069   7.09000015  53.59000397
C    10.80999947   6.80999994  54.29000092
C    12.09000015   7.20000029  54.61999893
C    12.48000050   7.67000008  55.91999817
C    11.46000004   8.01000023  56.77999878
C    10.14000034   7.55999994  56.52000046
C     9.06999969   7.86000013  57.42000198
C     7.81000042   7.40000010  57.14000320
C     7.44999981   6.83000040  55.87999725
C     8.45000076   6.61000013  54.95999908
C     9.80000019   6.94000006  55.27000046
C    13.92000008   7.86999989  56.06999969
C    14.63999939   7.48000050  54.92000198
C    16.03000069   7.40000010  54.82999802
C     5.98999977   6.63000011  55.58000183
H     5.64122820   7.22077656  54.73298264
H    10.64000034   6.35999966  53.30999756
H    11.64000034   8.59000015  57.68000031
H     9.27999973   8.47999954  58.27999878
H     6.97000027   7.71000004  57.75000000
H     8.26000023   6.21000004  53.96999741
H    16.54000092   6.94999981  53.97999573
H     5.42000008   6.78999996  56.51000214
H     5.86000013   5.58000040  55.31999969
S    17.47999954   9.13999939  52.57999802
C    20.20000076   9.28999996  51.77999878
C    18.89999962   8.90999985  51.52999878
C    18.60999870   8.27999973  50.28999710
C    19.56999969   8.14000034  49.29999924
C    20.92000008   8.47999954  49.56999969
C    21.98999786   8.34999943  48.63999939
C    23.25000000   8.80000019  48.95000076
C    23.55999947   9.28999996  50.24000168
C    22.59000015   9.35000038  51.20999908
C    21.25000000   8.98999977  50.87999725
C    17.17000008   8.17000008  50.10000229
C    16.45000076   8.69999981  51.19999695
C    15.06999969   8.89999962  51.12999725
C    24.96000099   9.81000042  50.47000122
H    25.50732422   9.23424339  51.21635437
H    20.48000145   9.70000076  52.75000000
H    19.34000015   7.53999996  48.43000031
H    21.67000008   7.88000011  47.70999908
H    24.04999924   8.78000069  48.22000122
H    22.73999977   9.90999985  52.12999725
H    14.52000046   9.26000023  51.98999786
H    25.52000046   9.72999954  49.52999878
H    24.89999962  10.88000107  50.70000076
S    14.01000023   7.40999985  47.62000275
C    11.31000042   7.53000021  48.18999863
C    12.58999920   7.83999968  48.59000397
C    12.94000053   8.47000027  49.82999802
C    11.89000034   8.65999985  50.70000076
C    10.53999996   8.34999943  50.41999817
C     9.52000046   8.31999969  51.42000198
C     8.23000050   8.07999992  51.00999832
C     7.88999987   7.72000027  49.68000031
C     8.90999985   7.57000017  48.76999664
C    10.26999950   7.82999992  49.10999680
C    14.39000034   8.52999973  49.95999908
C    15.11999989   7.90999985  48.90999603
C    16.48999977   7.69999981  48.96999741
C     6.50000000   7.23999977  49.33000183
H     6.04475307   7.78771925  48.50486374
H    11.07999992   7.13999987  47.19999695
H    12.07999992   9.11999989  51.66999817
H     9.77000046   8.52999973  52.45999908
H     7.49000025   8.14000034  51.79999924
H     8.80999947   7.14999962  47.77000046
H    17.05999947   7.26000023  48.15999985
H     5.93999958   7.39000034  50.26000214
H     6.60000038   6.19000006  49.03999710
