96

S    17.00000000   9.06000042  58.29999924
C    19.70999908   9.36999989  57.54000092
C    18.45000076   8.85999966  57.29999924
C    18.04999924   8.34000015  56.03000259
C    19.03000069   7.94000053  55.13999939
C    20.35000038   8.36999989  55.38999939
C    21.40000153   8.10000038  54.47000122
C    22.70999908   8.42000008  54.75000000
C    23.02000046   9.10000038  55.96000290
C    22.04999924   9.46000004  56.86000061
C    20.69999886   9.15999985  56.55000305
C    16.61000061   8.14000034  55.86000061
C    15.90000057   8.47999954  57.04000092
C    14.51000023   8.43000031  57.09999847
C    24.47000122   9.44999981  56.22000122
H    25.00498962   8.91501141  57.00465012
H    19.96999931   9.72000027  58.54000092
H    18.84000015   7.36999989  54.22999954
H    21.18999863   7.55000019  53.55999756
H    23.44000053   8.32999992  53.94000244
H    22.29000092  10.03000069  57.75000000
H    13.92000008   8.85999966  57.90999985
H    25.05000114   9.36999989  55.28999710
H    24.36000061  10.53999996  56.35000229
S    13.53999996   7.44999981  53.34000015
C    10.78999996   7.44000006  53.87000275
C    12.06999969   7.65999985  54.31999969
C    12.35000038   8.01999950  55.68000031
C    11.31000042   8.34000015  56.52999878
C     9.98999977   8.01999950  56.12999725
C     8.84000015   8.10000038  56.95999908
C     7.57999992   7.76000023  56.52000046
C     7.34000015   7.13000011  55.27000046
C     8.43999958   7.00999975  54.45999908
C     9.72000027   7.53000021  54.79999924
C    13.78000069   8.05000019  55.97000122
C    14.51000023   7.71000004  54.79999924
C    15.90000057   7.64999962  54.75999832
C     5.91000032   6.94000006  54.80999756
H     5.47446489   7.71111107  54.17454910
H    10.62999916   6.98999977  52.90000153
H    11.54000092   8.67999935  57.54000092
H     8.98999977   8.38000011  58.00000000
H     6.67999983   7.72000027  57.14000320
H     8.30999947   6.69000053  53.43000031
H    16.43000031   7.40000010  53.85000229
H     5.27999973   6.88000011  55.70000076
H     5.88999987   5.96000004  54.29999924
S    17.54999924   9.26999950  52.39999771
C    20.26000023   9.28999996  51.63000107
C    18.95000076   8.97999954  51.35000229
C    18.63999939   8.59000015  50.00999832
C    19.63999939   8.27999973  49.10999680
C    21.00000000   8.56000042  49.38999939
C    22.06999969   8.34999943  48.47000122
C    23.38999939   8.53999996  48.81000137
C    23.68999863   9.13000011  50.06000137
C    22.67000008   9.38000011  50.96000290
C    21.30000114   9.11000061  50.68000031
C    17.19000053   8.53999996  49.86000061
C    16.47999954   8.86999989  51.04000092
C    15.08999920   9.01000023  51.02000427
C    25.06000137   9.59000015  50.50000000
H    25.41576004   9.03501225  51.36805725
H    20.46999931   9.67000008  52.63000107
H    19.40000153   7.86000013  48.13000107
H    21.87000084   8.10000038  47.43000031
H    24.13999939   8.50000000  48.02999878
H    22.95999908   9.96000004  51.83000183
H    14.63999939   9.38000011  51.93000031
H    25.72000122   9.30000019  49.68000031
H    25.17000008  10.65999985  50.68999863
S    14.01000023   7.81000042  47.41000366
C    11.31000042   7.73999977  48.06999969
C    12.57999992   8.10000038  48.41999817
C    12.94999981   8.63000011  49.69999695
C    11.90000057   8.93000031  50.54000092
C    10.54999924   8.64000034  50.21999741
C     9.48999977   8.88000011  51.13999939
C     8.18000031   8.67000008  50.77999878
C     7.79999971   8.10999966  49.54000092
C     8.85000038   7.81000042  48.69999695
C    10.22999954   8.02999973  48.95000076
C    14.40000057   8.65999985  49.85000229
C    15.13000011   8.19999981  48.73000336
C    16.52000046   8.14000034  48.69999695
C     6.40999985   7.63999987  49.13999939
H     5.89727783   8.30938721  48.44924927
H    11.06999969   7.22000027  47.14000320
H    12.02999973   9.35999966  51.52999878
H     9.81999969   9.61000061  51.86999893
H     7.40000010   9.13000011  51.38999939
H     8.56999969   7.35000038  47.76000214
H    17.07999992   7.82000017  47.83000183
H     5.82000017   7.59999990  50.06000137
H     6.51000023   6.63000011  48.74000168
