96

S    16.72000122   8.64000034  58.09999847
C    19.44000053   8.85999966  57.50999832
C    18.19000053   8.47000027  57.11000061
C    17.90999985   8.19000053  55.73999786
C    18.96000099   8.03999996  54.86000061
C    20.28000069   8.27999973  55.30000305
C    21.42000008   8.13000011  54.45000076
C    22.70000076   8.50000000  54.79999924
C    22.98999977   8.97000027  56.11000061
C    21.90999985   9.01000023  56.97000122
C    20.55999947   8.71999931  56.65000153
C    16.46999931   8.19000053  55.48999786
C    15.70000076   8.39999962  56.65999985
C    14.32999992   8.60999966  56.70000076
C    24.34000015   9.53999996  56.47999573
H    24.83846855   8.90623188  57.21345901
H    19.67000008   9.19999981  58.53000259
H    18.70000076   7.88000011  53.81000137
H    21.12999916   7.73999977  53.47999954
H    23.52000046   8.43000031  54.09999847
H    22.07999992   9.39999962  57.97000122
H    13.86000061   8.82999992  57.64999771
H    25.03000069   9.61000061  55.63000107
H    24.23999977  10.54999924  56.88999939
S    13.27000046   7.48000050  53.06999969
C    10.59000015   7.28999996  53.70999908
C    11.82999992   7.75000000  54.06999969
C    12.17000008   8.27000046  55.35999680
C    11.16000080   8.47999954  56.29000092
C     9.85000038   8.05999947  55.94999695
C     8.80000019   8.19999981  56.90999985
C     7.55000019   7.67000008  56.75000000
C     7.23000002   7.16000032  55.45999908
C     8.23000050   7.00000000  54.52000046
C     9.56999969   7.44000006  54.68999863
C    13.60999966   8.31999969  55.54000092
C    14.35999966   7.96000004  54.38999939
C    15.75000000   7.99000025  54.31000137
C     5.82999992   6.69000053  55.13999939
H     5.35359383   7.25173283  54.33650970
H    10.40999985   6.65999985  52.83000183
H    11.44000053   8.57999992  57.32999802
H     9.04999924   8.78000069  57.78999710
H     6.80000019   7.79999971  57.51999664
H     7.97999954   6.39999962  53.64999771
H    16.21000099   7.59000015  53.40999985
H     5.12000036   6.71000004  55.97999954
H     5.88999987   5.64000034  54.84000397
S    17.31999969   9.47000027  52.11000061
C    20.05000114   9.51000023  51.72000122
C    18.81999969   9.15000057  51.22000122
C    18.60000038   8.82999992  49.84000397
C    19.73999977   8.48999977  49.13000107
C    21.04999924   8.71000004  49.59999847
C    22.13999939   8.46000004  48.70999908
C    23.38999939   8.78999996  49.16999817
C    23.52999878   9.38000011  50.45000076
C    22.50000000   9.67000008  51.31000137
C    21.18999863   9.30000019  50.90999985
C    17.17000008   8.76000023  49.54999924
C    16.36999893   9.19999981  50.63000107
C    14.98999977   9.35000038  50.66999817
C    24.86999893   9.94000053  50.87999725
H    25.43318176   9.25562668  51.51446915
H    20.02000046   9.96000004  52.70999908
H    19.55999947   8.01000023  48.16999817
H    21.88999939   8.32999992  47.65999603
H    24.30000114   8.73000050  48.56999969
H    22.70999908  10.34999943  52.14000320
H    14.40999985   9.63999939  51.53999710
H    25.52999878  10.10000038  50.00999832
H    24.77999878  10.97000027  51.25000000
S    14.01999950   7.79999971  47.16999817
C    11.31000042   7.50999975  47.88000107
C    12.56000042   8.01000023  48.15999985
C    12.86000061   8.76000023  49.34999847
C    11.79999924   8.97999954  50.20000076
C    10.47000027   8.56999969  49.93000031
C     9.39000034   8.73999977  50.84000015
C     8.15999985   8.26000023  50.45999908
C     7.90000010   7.60999966  49.22000122
C     8.93000031   7.36000013  48.34000015
C    10.21999931   7.81000042  48.73000336
C    14.28999996   8.90999985  49.54000092
C    15.06000042   8.38000011  48.47999954
C    16.45000076   8.30999947  48.43999863
C     6.50000000   7.16000032  48.87000275
H     6.10159826   7.77894497  48.06608582
H    11.21000099   7.05999947  46.90000153
H    11.96000004   9.27999973  51.24000168
H     9.59999943   9.04999924  51.86000061
H     7.34000015   8.36000061  51.16000366
H     8.73999977   6.80000019  47.43000031
H    16.94000053   7.85000038  47.57999802
H     5.93999958   7.25000000  49.80999756
H     6.40999985   6.11999989  48.54000092
