96

S    17.06999969   8.69000053  58.29999924
C    19.78999901   8.97000027  57.55000305
C    18.50000000   8.60999966  57.25000000
C    18.06999969   8.09000015  55.97999954
C    19.01000023   7.86999989  55.00000000
C    20.36000061   8.14000034  55.31999969
C    21.42999840   7.95000029  54.38999939
C    22.73999977   8.21000004  54.71000290
C    23.11000061   8.73999977  55.97999954
C    22.13999939   8.92000008  56.93000031
C    20.78000069   8.67000008  56.59000015
C    16.63999939   7.82999992  55.87999725
C    15.90999985   8.23000050  57.02999878
C    14.52999973   8.31999969  57.11999893
C    24.48999786   9.27999973  56.25999832
H    25.02374268   8.67509079  56.99300766
H    20.06999969   9.26999950  58.54999924
H    18.85000038   7.51999950  53.97999573
H    21.24000168   7.42000008  53.46000290
H    23.57000160   7.90000010  54.09000015
H    22.36000061   9.43000031  57.87000275
H    14.06000042   8.89999962  57.90999985
H    25.06999969   9.43000031  55.34000015
H    24.23999977  10.31000042  56.52999878
S    13.32999992   7.09000015  53.54000092
C    10.65000057   6.86999989  54.45000076
C    11.94000053   7.31999969  54.61999893
C    12.35999966   7.86999989  55.86999893
C    11.40999985   8.27999973  56.79000092
C    10.05000019   7.94000053  56.59999847
C     9.02000046   8.26000023  57.52999878
C     7.72000027   7.90999985  57.27000427
C     7.36999989   7.16000032  56.11999893
C     8.31999969   6.86999989  55.17000198
C     9.68000031   7.21000004  55.41999817
C    13.81000042   7.85000038  56.00999832
C    14.48999977   7.46000004  54.82999802
C    15.88000107   7.42999983  54.77000427
C     5.93999958   6.70000029  55.87999725
H     5.50715828   7.22508621  55.02850723
H    10.34000015   6.19000006  53.64999771
H    11.67000008   8.82999992  57.69000244
H     9.30000019   8.63000011  58.50999832
H     7.04999971   8.15999985  58.09000015
H     7.99000025   6.51000023  54.20000076
H    16.39999962   7.27999973  53.82999802
H     5.33999968   6.94999981  56.76000214
H     5.77000046   5.63000011  55.73999786
S    16.95999908   9.23999977  52.37999725
C    19.63000107   9.31999969  51.60999680
C    18.34000015   8.93999958  51.31000137
C    17.97999954   8.39999962  50.02999878
C    18.98999977   8.05999947  49.15000153
C    20.30999947   8.47999954  49.43999863
C    21.30000114   8.40999985  48.41999817
C    22.56000137   8.89999962  48.63999939
C    22.92000008   9.47000027  49.88999939
C    22.03000069   9.47000027  50.93999863
C    20.68000031   9.10000038  50.68999863
C    16.53000069   8.30999947  49.92000198
C    15.85000038   8.80999947  51.06999969
C    14.47000027   8.97999954  51.09000397
C    24.34000015   9.92999935  50.13000107
H    24.93374825   9.22894764  50.71659088
H    19.81999969   9.82999992  52.56000137
H    18.72999954   7.59000015  48.20000076
H    21.09000015   7.85000038  47.50999832
H    23.34000015   8.86999989  47.88000107
H    22.36000061   9.77000046  51.93000031
H    13.99000072   9.21000004  52.04000092
H    24.93000031  10.18000031  49.23999786
H    24.23000145  10.90999985  50.61999893
S    13.43999958   7.46999979  47.50000000
C    10.75000000   7.40999985  48.25000000
C    12.02999973   7.81000042  48.53000259
C    12.31999969   8.36999989  49.80999756
C    11.26999950   8.52999973  50.70000076
C     9.94999981   8.07999992  50.44000244
C     8.89999962   8.14999962  51.38999939
C     7.62000036   7.72000027  51.10000229
C     7.30999994   7.40999985  49.75000000
C     8.30000019   7.23999977  48.81000137
C     9.64999962   7.53000021  49.13999939
C    13.73999977   8.64000034  49.94999695
C    14.44000053   8.14000034  48.81999969
C    15.80999947   7.90000010  48.80000305
C     5.92000008   6.90999985  49.41999817
H     5.51207876   7.49683428  48.59700012
H    10.59999943   6.89000034  47.30999756
H    11.44000053   8.82999992  51.72999954
H     9.21000004   8.53999996  52.36000061
H     6.85999966   7.81000042  51.86999893
H     7.96000004   6.94000006  47.81999969
H    16.28000069   7.44999981  47.93000031
H     5.38000011   7.07999992  50.35999680
H     6.01000023   5.84000015  49.22999954
