96

S    17.06999969   8.98999977  58.13999939
C    19.70999908   9.22999954  57.32999802
C    18.44000053   8.80999947  57.02999878
C    18.02000046   8.28999996  55.76000214
C    19.04999924   8.17000008  54.85000229
C    20.40999985   8.50000000  55.08999634
C    21.47000122   8.31999969  54.15999985
C    22.77000046   8.56999969  54.51000214
C    23.09999847   9.21000004  55.73999786
C    22.07999992   9.44000053  56.63000107
C    20.72999954   9.07999992  56.36000061
C    16.56999969   8.19000053  55.63999939
C    15.93000031   8.57999992  56.84000015
C    14.55999947   8.78999996  56.81000137
C    24.54000092   9.52999973  56.10000229
H    25.00477409   8.83641624  56.80073547
H    19.98999977   9.68000031  58.27999878
H    18.89000130   7.76000023  53.86000061
H    21.21999931   7.96000004  53.15999985
H    23.55999947   8.43999958  53.76999664
H    22.22999954   9.92999935  57.58999634
H    14.11999893   9.10000038  57.76000214
H    25.02000046   9.56999969  55.11000061
H    24.56999969  10.55999947  56.46999741
S    13.28999996   7.55999994  53.23999786
C    10.60999966   7.62000036  54.03999710
C    11.92999935   7.88999987  54.31999969
C    12.35999966   8.22000027  55.65000153
C    11.40999985   8.50000000  56.60999680
C    10.05000019   8.19999981  56.36000061
C     9.06000042   8.31999969  57.37999725
C     7.73000002   8.14000034  57.04999924
C     7.36000013   7.68000031  55.76000214
C     8.25000000   7.60999966  54.72000122
C     9.61999989   7.78999996  55.05000305
C    13.81000042   8.36999989  55.70999908
C    14.46000004   8.02999973  54.48999786
C    15.84000015   7.85000038  54.48999786
C     5.91000032   7.30999994  55.52000046
H     5.54191685   7.96122408  54.72720718
H    10.36000061   7.21000004  53.06000137
H    11.75000000   8.94999981  57.54000092
H     9.47000027   8.73000050  58.29999924
H     7.04999971   8.30000019  57.88000107
H     7.99000025   7.23000002  53.73000336
H    16.34000015   7.53000021  53.57999802
H     5.28999996   7.44000006  56.40999603
H     5.89999962   6.28999996  55.12000275
S    17.15999985   9.77999973  51.84999847
C    19.86999893   9.42000008  51.33999634
C    18.56999969   9.11000061  51.00999832
C    18.22999954   8.43999958  49.79000092
C    19.25000000   8.25000000  48.87000275
C    20.59000015   8.65999985  49.10999680
C    21.65999985   8.38999939  48.20999908
C    22.95000076   8.73999977  48.52000427
C    23.23999786   9.43000031  49.72999954
C    22.20000076   9.78999996  50.56000137
C    20.89999962   9.26000023  50.38000107
C    16.79000092   8.34999943  49.64000320
C    16.09000015   9.13999939  50.59000015
C    14.70999908   9.22999954  50.73999786
C    24.61000061  10.01000023  49.99000168
H    25.04271317   9.52053833  50.86251831
H    19.97999954  10.03999901  52.22999954
H    19.03000069   7.90000010  47.87000275
H    21.42999840   8.03999996  47.21000290
H    23.72999954   8.52999973  47.80000305
H    22.30999947  10.44000053  51.43000031
H    14.32000065   9.56999969  51.69000244
H    25.15000153   9.89000034  49.05000305
H    24.44000053  11.05999947  50.25000000
S    13.50000000   7.94000053  47.18999863
C    10.77999973   8.06999969  47.88999939
C    12.10000038   8.31999969  48.20000076
C    12.48999977   8.78999996  49.50000000
C    11.50000000   9.03999996  50.43000031
C    10.13000011   8.78999996  50.20000076
C     9.10000038   9.00000000  51.17000198
C     7.78999996   8.69000053  50.90000153
C     7.46000004   8.26000023  49.59000015
C     8.43000031   8.05000019  48.62999725
C     9.78999996   8.36999989  48.87000275
C    13.94000053   8.89000034  49.61999893
C    14.61999989   8.32999992  48.50000000
C    15.98000050   8.03999996  48.54000092
C     6.01999998   7.94000053  49.26000214
H     5.74917173   8.37475109  48.29784775
H    10.46000004   7.42999983  47.06999969
H    11.64999962   9.15999985  51.50000000
H     9.48999977   9.22999954  52.15999985
H     7.20000029   8.86999989  51.79999924
H     8.19999981   7.50999975  47.71999741
H    16.54000092   7.63999987  47.70000076
H     5.42000008   8.23000050  50.13000107
H     5.92000008   6.84999990  49.22999954
