96

S    17.25000000   8.96000004  58.02999878
C    19.96999931   8.93000031  57.35000229
C    18.67000008   8.60000038  57.02999878
C    18.31999969   8.17000008  55.70999908
C    19.32999992   8.10999966  54.75999832
C    20.69000053   8.31999969  55.05000305
C    21.76000214   8.27999973  54.10999680
C    23.05000114   8.51000023  54.52999878
C    23.34000015   8.94999981  55.84000015
C    22.30999947   9.21000004  56.72000122
C    21.00000000   8.76999950  56.38999939
C    16.87999916   8.01999950  55.59000015
C    16.14999962   8.55000019  56.69000244
C    14.77000046   8.60000038  56.79999924
C    24.71999931   9.43000031  56.25000000
H    25.12537766   8.74725914  56.99674606
H    20.27000046   9.52000046  58.20999908
H    19.01000023   7.73999977  53.79000092
H    21.56999969   8.05000019  53.06000137
H    23.88000107   8.36000061  53.85000229
H    22.50999832   9.39999962  57.77000046
H    14.32000065   8.96000004  57.71999741
H    25.29999924   9.59000015  55.34000015
H    24.64999962  10.39999962  56.75000000
S    13.66000080   7.46000004  53.18000031
C    10.93999958   7.40999985  53.85000229
C    12.23000050   7.69999981  54.20999908
C    12.58999920   8.28999996  55.45999908
C    11.63000011   8.30999947  56.45999908
C    10.29000092   7.97999954  56.14999771
C     9.31999969   8.15999985  57.18000031
C     8.01999950   7.73999977  56.97000122
C     7.59999990   7.37999964  55.65999985
C     8.56000042   7.16000032  54.69999695
C     9.92000008   7.55000019  54.82999802
C    14.02999973   8.30000019  55.63999939
C    14.77000046   7.90999985  54.48999786
C    16.13999939   7.73999977  54.43000031
C     6.23000050   6.77999973  55.44000244
H     5.72608519   7.31940174  54.63799667
H    10.72999954   6.94000006  52.88999939
H    11.87000084   8.53999996  57.49000168
H     9.52999973   8.65999985  58.11999893
H     7.31999969   7.65999985  57.78999710
H     8.30999947   6.47000027  53.89999771
H    16.64999962   7.42999983  53.52000427
H     5.60999966   6.81999969  56.33999634
H     6.34000015   5.71000004  55.22999573
S    17.28000069   9.46000004  52.04000092
C    20.00999832   9.42000008  51.27999878
C    18.70000076   9.07999992  51.04000092
C    18.34000015   8.56000042  49.75999832
C    19.32999992   8.34000015  48.81000137
C    20.68000031   8.69000053  49.00000000
C    21.75000000   8.30999947  48.13000107
C    23.02000046   8.80000019  48.34999847
C    23.32999992   9.50000000  49.54000092
C    22.34000015   9.68999958  50.47999954
C    21.00000000   9.26999950  50.27999878
C    16.90000153   8.52999973  49.58000183
C    16.18999863   9.04999924  50.70000076
C    14.80000019   9.06999969  50.72000122
C    24.76000023   9.92999935  49.78000259
H    25.25177002   9.23154545  50.45707321
H    20.27000046  10.00000000  52.16999817
H    19.07999992   7.85000038  47.87000275
H    21.40000153   7.72000027  47.29000092
H    23.71000099   8.63000011  47.52999878
H    22.47999954  10.10000038  51.46999741
H    14.39000034   9.59999943  51.56999969
H    25.29000092  10.00000000  48.81999969
H    24.84999847  11.00000000  50.00999832
S    13.64999962   7.46999979  47.25000000
C    10.95999908   7.44999981  48.02000046
C    12.27000046   7.73000002  48.34000015
C    12.63000011   8.30999947  49.59000015
C    11.63000011   8.60999966  50.50000000
C    10.29000092   8.26000023  50.21999741
C     9.23999977   8.36999989  51.17000198
C     7.92999983   8.19999981  50.77999878
C     7.59000015   7.69999981  49.50000000
C     8.56999969   7.44999981  48.56999969
C     9.90999985   7.73000002  48.94000244
C    14.07999992   8.47000027  49.68000031
C    14.75000000   8.11999989  48.47999954
C    16.13999939   8.17000008  48.46000290
C     6.17999983   7.22000027  49.20000076
H     5.80160952   7.89110756  48.42893982
H    10.71000004   7.02000046  47.04999924
H    11.79999924   9.02999973  51.49000168
H     9.44999981   8.73000050  52.18000031
H     7.17000008   8.27000046  51.55000305
H     8.43999958   6.78999996  47.70999908
H    16.54999924   7.53999996  47.68000031
H     5.59000015   7.03999996  50.11000061
H     6.32999992   6.24000025  48.72000122
