96

S    17.28000069   9.26999950  58.13999939
C    19.95000076   9.36999989  57.36999893
C    18.64999962   9.07999992  57.02999878
C    18.20000076   8.65999985  55.73999786
C    19.18000031   8.38999939  54.79999924
C    20.52999878   8.73999977  55.06000137
C    21.50000000   8.60999966  54.02000046
C    22.81999969   8.92000008  54.26000214
C    23.26999855   9.19000053  55.58000183
C    22.32999992   9.40999985  56.56000137
C    20.94000053   9.13000011  56.38000107
C    16.75000000   8.61999989  55.61000061
C    16.11999893   9.02999973  56.81000137
C    14.73999977   9.01000023  56.91999817
C    24.63000107   9.78999996  55.80999756
H    25.12703896   9.13674831  56.52715683
H    20.29000092   9.85000038  58.29000092
H    18.93000031   8.09000015  53.79000092
H    21.25000000   8.22000027  53.04000092
H    23.55999947   8.89999962  53.46000290
H    22.63000107   9.84000015  57.50999832
H    14.26000023   9.06999969  57.88999939
H    25.22999954   9.82999992  54.88999939
H    24.59000015  10.84000015  56.11999893
S    13.56999969   7.77999973  53.27999878
C    10.95999908   7.53000021  54.05000305
C    12.22000027   7.95000029  54.41999817
C    12.51000023   8.51000023  55.70999908
C    11.44999981   8.69999981  56.56999969
C    10.13000011   8.36999989  56.18999863
C     9.03999996   8.50000000  57.09999847
C     7.76999998   8.10999966  56.76000214
C     7.55000019   7.34000015  55.58000183
C     8.61999989   7.07000017  54.77000427
C     9.86999989   7.73000002  54.93000031
C    13.94999981   8.65999985  55.80999756
C    14.61999989   8.31999969  54.61000061
C    16.00000000   8.25000000  54.48999786
C     6.11999989   6.98000002  55.26000214
H     5.69982576   7.62806463  54.49086761
H    10.93999958   7.11999989  53.04000092
H    11.54999924   9.11999989  57.56999969
H     9.19999981   9.03999996  58.02999878
H     7.00000000   8.26000023  57.50999832
H     8.47000027   6.57999992  53.80000305
H    16.50000000   7.95000029  53.56999969
H     5.52999973   7.17999983  56.16000366
H     5.95000029   5.92000008  55.01999664
S    13.88000011   5.82999992  50.33000183
C    11.14999962   5.32999992  51.04999924
C    12.50000000   5.25000000  51.29000092
C    12.96000004   4.46999979  52.38999939
C    12.05999947   3.91999984  53.27999878
C    10.65999985   3.96000004  53.06999969
C     9.68000031   3.26999998  53.85000229
C     8.34000015   3.45000005  53.61999893
C     7.88000011   4.05999994  52.42000198
C     8.82999992   4.69999981  51.65000153
C    10.22999954   4.63000011  51.88000107
C    14.40000057   4.59000015  52.60000229
C    15.03000069   5.36000013  51.59000015
C    16.39000130   5.65999985  51.59999847
C     6.44000006   4.44000006  52.15000153
H     6.06290245   4.07001686  51.19658279
H    10.85000038   5.79999971  50.12000275
H    12.46000099   3.47000003  54.19000244
H     9.96000004   2.68000007  54.72000122
H     7.63000011   3.25000000  54.41999817
H     8.45000076   5.38000011  50.90000153
H    16.82999992   6.30000019  50.84999847
H     5.82999992   4.11000013  53.00000000
H     6.35999966   5.52999973  52.16999817
S    17.71999931   3.95000005  54.95999908
C    20.36999893   4.65999985  54.40999985
C    19.03000069   4.78999996  54.10999680
C    18.55999947   5.35000038  52.88000107
C    19.47999954   5.96000004  52.04999924
C    20.86999893   5.79999971  52.28000259
C    21.83000183   6.05000019  51.25999832
C    23.15000153   5.78999996  51.52999878
C    23.61999893   5.09000015  52.67000198
C    22.65999985   4.77999973  53.61000061
C    21.31000137   5.21000004  53.50999832
C    17.13000107   5.13000011  52.67000198
C    16.52000046   4.44000006  53.75000000
C    15.18000031   4.11999989  53.66000366
C    25.03000069   4.56999969  52.84000015
H    25.59872246   5.12450361  53.58644485
H    20.65999985   4.05999994  55.27000046
H    19.22999954   6.32999992  51.05999756
H    21.61000061   6.44000006  50.27000046
H    23.90000153   6.01999998  50.77000046
H    22.85000038   4.17000008  54.48999786
H    14.65999985   3.48000002  54.36999893
H    25.61000061   4.61999989  51.91999817
H    25.10000038   3.54999995  53.22999954
