96

S    16.69999886   8.55000019  58.02999878
C    19.40000153   8.71000004  57.34000397
C    18.11000061   8.36999989  56.97999954
C    17.79999924   7.86999989  55.66999817
C    18.82999992   7.69999981  54.77000427
C    20.13999939   8.02999973  55.18000031
C    21.22999954   7.99000025  54.26000214
C    22.53999901   8.32999992  54.52999878
C    22.80999947   8.93999958  55.77999878
C    21.83000183   9.02000046  56.73999786
C    20.50000000   8.59000015  56.45000076
C    16.36000061   7.76000023  55.47999954
C    15.65999985   8.09000015  56.66999817
C    14.27999973   8.23000050  56.77999878
C    24.20999908   9.39000034  56.13999939
H    24.76506996   8.64990711  56.71641922
H    19.57999992   9.21000004  58.29000092
H    18.68000031   7.14999962  53.85000229
H    20.95000076   7.79999971  53.22999954
H    23.36000061   8.25000000  53.81999969
H    22.11000061   9.42000008  57.71999741
H    13.82999992   8.71000004  57.64999771
H    24.69000053   9.71000004  55.20999908
H    24.04000092  10.34999943  56.63999939
S    13.10999966   6.97000027  53.18999863
C    10.44000053   6.75000000  54.01000214
C    11.72999954   7.13999987  54.29000092
C    12.07999992   7.73000002  55.54000092
C    11.07999992   7.95000029  56.47999573
C     9.72999954   7.69000006  56.13999939
C     8.69999981   7.99000025  57.06999969
C     7.37999964   7.68000031  56.84000015
C     7.03999996   7.03000021  55.61999893
C     8.01000023   6.72999954  54.69999695
C     9.38000011   7.04999971  54.89999771
C    13.52000046   7.82999992  55.66999817
C    14.21000004   7.46999979  54.48999786
C    15.59000015   7.32999992  54.38999939
C     5.61999989   6.61999989  55.28999710
H     5.22971630   7.16639709  54.43137741
H    10.34999943   6.28000021  53.02999878
H    11.28999901   8.23000050  57.50999832
H     9.03999996   8.57999992  57.91999817
H     6.67999983   7.99000025  57.60000229
H     7.64999962   6.15000010  53.85000229
H    16.02000046   6.90999985  53.48999786
H     5.07000017   6.83000040  56.20999908
H     5.59999990   5.56999969  54.94999695
S    17.35999870   8.96000004  52.05999756
C    20.02000046   9.31999969  51.31999969
C    18.77000046   8.86999989  50.97999954
C    18.43000031   8.43999958  49.65999985
C    19.45000076   8.38000011  48.72000122
C    20.79999924   8.63000011  49.06999969
C    21.84999847   8.43000031  48.13999939
C    23.15000153   8.63000011  48.54999924
C    23.45999908   9.13000011  49.85000229
C    22.43000031   9.44999981  50.70000076
C    21.07000160   9.19000053  50.37000275
C    16.98999977   8.23000050  49.56999969
C    16.25000000   8.51000023  50.75000000
C    14.86999989   8.43999958  50.86999893
C    24.89000130   9.53999996  50.12000275
H    25.34672928   8.91913223  50.89073181
H    20.17999840   9.67000008  52.34000397
H    19.19999886   7.82999992  47.81999969
H    21.55999947   8.10999966  47.14000320
H    23.90000153   8.75000000  47.77999878
H    22.70999908   9.68999958  51.72000122
H    14.37000084   8.67999935  51.81000137
H    25.48000145   9.52999973  49.20000076
H    24.71999931  10.57000065  50.45000076
S    13.75000000   7.48000050  47.18000031
C    11.03999996   7.20000029  47.95000076
C    12.34000015   7.55000019  48.25000000
C    12.71999931   7.92999983  49.58000183
C    11.68000031   8.23999977  50.43000031
C    10.34999943   7.81000042  50.21999741
C     9.30000019   7.97999954  51.17000198
C     8.00000000   7.64999962  50.90000153
C     7.68000031   7.13000011  49.61999893
C     8.64999962   6.96000004  48.66000366
C    10.01000023   7.27999973  48.93000031
C    14.17000008   8.05999947  49.72000122
C    14.86999989   7.77999973  48.52000427
C    16.26000023   7.82999992  48.44999695
C     6.21000004   6.83000040  49.38000107
H     5.74024534   7.57021999  48.73230743
H    10.82999992   6.89000034  46.93000031
H    11.75000000   8.78999996  51.37000275
H     9.50000000   8.56999969  52.05999756
H     7.28999996   7.81000042  51.70999908
H     8.40999985   6.70000029  47.63999939
H    16.82999992   7.73000002  47.54000092
H     5.59999990   6.71999979  50.27999878
H     5.98999977   5.86999989  48.89999771
