96

S    16.84000015   9.04999924  57.88999939
C    19.55000114   8.93000031  57.22000122
C    18.25000000   8.61999989  56.90000153
C    17.81999969   8.19000053  55.61000061
C    18.81000137   7.76000023  54.73999786
C    20.17999840   8.00000000  54.95999908
C    21.17000198   7.68000031  53.99000168
C    22.46000099   8.06999969  54.29000092
C    22.77000046   8.76999950  55.48999786
C    21.81999969   9.11999989  56.42000198
C    20.48000145   8.71999931  56.17000198
C    16.38000107   8.19999981  55.43000031
C    15.72000027   8.76999950  56.53999710
C    14.32999992   8.82000065  56.59000015
C    24.21999931   9.13000011  55.70999908
H    24.69391251   8.47218323  56.43854904
H    19.86999893   9.48999977  58.09999847
H    18.46999931   7.03999996  53.99000168
H    21.00000000   7.16000032  53.04999924
H    23.31999969   7.82999992  53.67000198
H    22.06999969   9.64999962  57.32999802
H    13.80000019   9.19999981  57.44999695
H    24.89000130   8.98999977  54.85000229
H    24.41999817  10.17000008  56.00000000
S    13.15000057   7.13000011  53.26000214
C    10.43000031   6.98000002  54.05000305
C    11.71000004   7.44000006  54.25000000
C    12.09000015   8.17000008  55.43000031
C    11.11999989   8.45000076  56.37000275
C     9.78999996   8.00000000  56.22000122
C     8.73999977   8.15999985  57.16999817
C     7.46999979   7.64999962  57.02999878
C     7.09999990   7.17999983  55.73999786
C     8.05999947   7.04999971  54.75000000
C     9.43000031   7.32999992  55.00000000
C    13.53000069   8.36000061  55.54000092
C    14.26000023   7.88999987  54.41999817
C    15.64000034   7.90000010  54.27000046
C     5.69000006   6.76999998  55.38000107
H     5.35624504   7.29548645  54.48525620
H    10.17000008   6.34999990  53.20999908
H    11.32999992   8.89999962  57.34000397
H     9.11000061   8.39999962  58.16999817
H     6.84000015   7.60999966  57.90000153
H     7.76999998   6.67999983  53.76999664
H    16.07999992   7.51999950  53.34999847
H     4.94999981   6.94000006  56.18000031
H     5.69999981   5.69999981  55.15999603
S    14.40999985   5.19999981  50.20000076
C    11.77999973   4.63999987  50.80999756
C    13.10999966   4.42000008  51.11999893
C    13.52000046   3.89999986  52.38999939
C    12.55000019   3.47000003  53.27999878
C    11.18000031   3.61000013  52.97000122
C    10.15999985   3.08999991  53.81000137
C     8.84000015   3.25999999  53.43999863
C     8.46000004   4.03999996  52.31999969
C     9.42000008   4.53999996  51.47999573
C    10.77999973   4.21999979  51.72999954
C    14.88999939   4.30000019  52.69000244
C    15.50000000   4.90999985  51.56999969
C    16.87000084   5.14999962  51.56000137
C     7.00999975   4.44000006  52.15000153
H     6.51296091   3.78674889  51.43284225
H    11.38000011   5.38999987  50.13999939
H    12.96000004   2.89000010  54.09999847
H    10.40999985   2.64999986  54.77000427
H     8.07999992   3.12000012  54.20000076
H     9.15000057   5.07000017  50.56999969
H    17.25000000   5.55999994  50.63000107
H     6.56000042   4.46000004  53.15000153
H     6.97000027   5.47999954  51.81000137
S    18.17000008   3.58000016  54.97000122
C    20.82999992   3.63999987  54.22999954
C    19.54000092   4.01999998  53.94000244
C    19.10000038   4.59000015  52.70000076
C    20.10999870   4.88999987  51.79999924
C    21.47000122   4.63999987  52.09000015
C    22.50000000   5.29999971  51.35000229
C    23.84000015   5.19999981  51.63000107
C    24.15999985   4.53000021  52.83000183
C    23.22999954   3.94000006  53.64999771
C    21.84999847   3.96000004  53.29999924
C    17.64999962   4.73000002  52.63999939
C    17.00000000   4.17000008  53.76999664
C    15.62000084   4.02999973  53.86000061
C    25.61000061   4.26999998  53.18000031
H    25.90918922   4.73303270  54.12031174
H    21.14000130   3.30999994  55.21999741
H    19.76000023   5.42999983  50.93000031
H    22.14999962   6.01999998  50.61999893
H    24.65999985   5.56999969  51.00999832
H    23.54000092   3.47000003  54.59000015
H    15.19000053   3.65999985  54.79000092
H    26.17000198   4.63000011  52.29999924
H    25.79000092   3.19000006  53.09999847
