96

S    16.72000122   8.92000008  58.33000183
C    19.43000031   8.85000038  57.88000107
C    18.18000031   8.47999954  57.43000031
C    17.89999962   8.01999950  56.10000229
C    18.97999954   7.92999983  55.24000168
C    20.30999947   8.22000027  55.61999893
C    21.42000008   7.94000053  54.78000259
C    22.69000053   8.18000031  55.24000168
C    22.93999863   8.71000004  56.53999710
C    21.86000061   8.90999985  57.36999893
C    20.51000214   8.69999981  56.97000122
C    16.46999931   7.83999968  55.90999985
C    15.71000004   8.39999962  56.97000122
C    14.32999992   8.51000023  56.97000122
C    24.33000183   9.07999992  56.98999786
H    24.70831871   8.20915604  57.52535629
H    19.60000038   9.25000000  58.87000275
H    18.85000038   7.31999969  54.34999847
H    21.28000069   7.63000011  53.74000168
H    23.54000092   8.00000000  54.58000183
H    22.06000137   9.39000034  58.31999969
H    13.78000069   8.96000004  57.78999710
H    24.93000031   9.32999992  56.10000229
H    24.25000000  10.00000000  57.58999634
S    13.35999966   7.09000015  53.41999817
C    10.57999992   7.30000019  53.90999603
C    11.87999916   7.48000050  54.31999969
C    12.20999908   8.00000000  55.61000061
C    11.18999958   8.23999977  56.52000046
C     9.84000015   8.01000023  56.13999939
C     8.78000069   7.88999987  57.06999969
C     7.49000025   7.50000000  56.79999924
C     7.13000011   7.22000027  55.45999908
C     8.18000031   7.13000011  54.58000183
C     9.52000046   7.55999994  54.80999756
C    13.63999939   8.05000019  55.84000015
C    14.40999985   7.48000050  54.79999924
C    15.80000019   7.40999985  54.75999832
C     5.66999960   6.97000027  55.13999939
H     5.32211733   7.31788301  54.16734695
H    10.31999969   6.80000019  52.97000122
H    11.36000061   8.59000015  57.52999878
H     8.93000031   8.10000038  58.13000107
H     6.69000053   7.40000010  57.54000092
H     7.96000004   6.63999987  53.62999725
H    16.35000038   7.23999977  53.83999634
H     5.03000021   7.50999975  55.84999847
H     5.40999985   5.89999962  55.19000244
S    17.61000061   9.19000053  52.43999863
C    20.30999947   9.28999996  51.79000092
C    19.04999924   8.89000034  51.43000031
C    18.71000099   8.34000015  50.14999771
C    19.72999954   8.36999989  49.22000122
C    21.02999878   8.84000015  49.54000092
C    22.11000061   8.76999950  48.61000061
C    23.36000061   9.23999977  48.93000031
C    23.68999863   9.67000008  50.24000168
C    22.70000076   9.68000031  51.19999695
C    21.35999870   9.35999966  50.84000015
C    17.27000046   8.19000053  50.00000000
C    16.54999924   8.60000038  51.14999771
C    15.15999985   8.73000050  51.12999725
C    25.10999870  10.01999950  50.61999893
H    25.57051086   9.29026699  51.28597260
H    20.45999908   9.85000038  52.70999908
H    19.70000076   8.01999950  48.18999863
H    21.86000061   8.36999989  47.62000275
H    24.05999947   9.15999985  48.11000061
H    23.03999901   9.82999992  52.22000122
H    14.65999985   9.19999981  51.97999954
H    25.78000069  10.18000031  49.77000427
H    25.12000084  10.97000027  51.16000366
S    14.11999893   8.05999947  47.36999893
C    11.42000008   8.03999996  47.95999908
C    12.71000004   8.21000004  48.43000031
C    13.02000046   8.57999992  49.77000427
C    11.96000004   8.76999950  50.65000153
C    10.64000034   8.52000046  50.21999741
C     9.52999973   8.67000008  51.10000229
C     8.25000000   8.38999939  50.70000076
C     7.94000053   7.83999968  49.43000031
C     8.98999977   7.79999971  48.54000092
C    10.34000015   8.10999966  48.87000275
C    14.46000004   8.52000046  49.93999863
C    15.19000053   8.17000008  48.77999878
C    16.57999992   8.07999992  48.77999878
C     6.53999996   7.32999992  49.15000153
H     6.16874933   7.85831833  48.27184677
H    11.18999958   7.65999985  46.97000122
H    12.18999958   8.86999989  51.70999908
H     9.73999977   8.96000004  52.12999725
H     7.37999964   8.47999954  51.33999634
H     8.92000008   7.40999985  47.52999878
H    17.22999954   7.99000025  47.91999817
H     5.86000013   7.42999983  50.00999832
H     6.51000023   6.26999950  48.89999771
