96

S    16.94000053   8.52999973  58.20000076
C    19.63999939   8.59000015  57.50000000
C    18.34000015   8.32999992  57.12999725
C    17.97000122   8.11999989  55.76000214
C    18.96000099   7.92999983  54.80999756
C    20.29999924   8.23999977  55.14999771
C    21.40999985   8.02999973  54.29999924
C    22.70999908   8.27999973  54.65999985
C    23.02999878   8.80999947  55.93999863
C    21.98999786   8.96000004  56.83000183
C    20.63999939   8.65999985  56.49000168
C    16.52000046   8.14000034  55.61000061
C    15.84000015   8.45000076  56.81000137
C    14.47000027   8.69000053  56.79999924
C    24.41999817   9.30999947  56.26999664
H    24.91720581   8.64942551  56.98029709
H    19.72999954   8.97999954  58.50999832
H    18.70000076   7.46999979  53.86000061
H    21.09999847   7.63000011  53.33000183
H    23.45000076   8.17000008  53.87000275
H    22.15999985   9.35999966  57.81999969
H    13.92000008   8.76000023  57.74000168
H    25.02000046   9.25000000  55.35999680
H    24.34999847  10.36999893  56.53999710
S    13.26000023   7.65999985  53.15000153
C    10.57999992   7.49000025  53.83999634
C    11.85999966   7.77999973  54.23999786
C    12.25999928   8.27000046  55.52999878
C    11.31000042   8.39999962  56.52999878
C     9.98999977   8.03999996  56.18999863
C     8.98999977   7.88000011  57.18999863
C     7.69999981   7.48000050  56.91999817
C     7.31999969   7.27999973  55.56000137
C     8.23999977   7.39000034  54.54000092
C     9.61000061   7.63999987  54.86000061
C    13.69999981   8.46000004  55.65999985
C    14.37000084   8.05999947  54.47000122
C    15.76000023   7.92999983  54.45999908
C     5.98000002   6.69000053  55.20000076
H     5.44013929   7.40744686  54.58200455
H    10.24000072   7.23000002  52.84000015
H    11.57999992   8.47000027  57.57999802
H     9.21000004   8.25000000  58.18999863
H     6.98000002   7.32999992  57.71999741
H     7.86999989   7.07999992  53.56999969
H    16.31000137   7.71000004  53.55999756
H     5.42000008   6.38000011  56.09000397
H     6.26999950   5.80999947  54.61000061
S    17.53999901   9.40999985  52.02999878
C    20.23999977   9.27999973  51.38999939
C    18.96000099   8.82999992  51.13999939
C    18.59000015   8.19000053  49.91000366
C    19.63000107   7.92999983  49.03999710
C    20.97999954   8.25000000  49.27999878
C    22.07999992   8.03999996  48.40000153
C    23.36000061   8.43999958  48.72000122
C    23.59999847   9.22000027  49.87999725
C    22.59000015   9.44999981  50.79000092
C    21.28000069   9.02000046  50.45999908
C    17.14999962   8.10000038  49.73999786
C    16.45000076   8.78000069  50.77000046
C    15.06999969   8.92000008  50.73999786
C    25.03999901   9.52000046  50.22999573
H    25.41775894   8.92841625  51.06391907
H    20.35000038   9.92000008  52.27000427
H    19.44000053   7.30999994  48.15999985
H    21.91999817   7.51999950  47.45999908
H    24.15999985   8.05000019  48.09000015
H    22.81999969   9.98000050  51.70999908
H    14.56999969   9.44000053  51.55000305
H    25.69000053   9.36999989  49.36000061
H    25.13000107  10.59000015  50.43000031
S    13.97999954   7.26999998  47.37999725
C    11.23000050   7.42000008  47.88999939
C    12.51000023   7.72000027  48.27999878
C    12.89000034   8.40999985  49.47000122
C    11.90999985   8.73999977  50.38999939
C    10.57999992   8.43000031  50.04000092
C     9.48000050   8.73000050  50.90999985
C     8.18000031   8.40999985  50.61999893
C     7.86000013   7.57999992  49.51000214
C     8.85999966   7.37999964  48.59000397
C    10.21999931   7.73999977  48.82999802
C    14.34000015   8.50000000  49.61999893
C    15.11000061   7.88999987  48.61000061
C    16.47999954   7.69000006  48.57999802
C     6.43000031   7.21000004  49.16999817
H     5.85910034   7.87367105  48.52060318
H    11.05000019   6.88000011  46.95999908
H    12.05999947   9.13000011  51.38999939
H     9.68999958   9.22000027  51.84999847
H     7.36999989   8.67999935  51.30000305
H     8.59000015   6.91999960  47.64999771
H    17.04000092   7.37999964  47.70000076
H     5.86000013   6.98000002  50.07999802
H     6.60000038   6.28000021  48.62999725
