96

S    17.02000046   9.03999996  58.20000076
C    19.70999908   8.80999947  57.56999969
C    18.40999985   8.52000046  57.22000122
C    17.94000053   8.02999973  55.96000290
C    18.89000130   8.07999992  54.95999908
C    20.26000023   8.30999947  55.20999908
C    21.27000046   8.45000076  54.20999908
C    22.55000114   8.80000019  54.58000183
C    22.98000145   9.04999924  55.90000153
C    22.01000023   8.97000027  56.88000107
C    20.66999817   8.60999966  56.56000137
C    16.48999977   7.99000025  55.81999969
C    15.85999966   8.52999973  56.95999908
C    14.48999977   8.80999947  56.95000076
C    24.38999939   9.52999973  56.12999725
H    24.97481918   8.92378330  56.82179642
H    20.00999832   9.44000053  58.40999985
H    18.43000031   8.23000050  53.97999573
H    20.97999954   8.19000053  53.18999863
H    23.26999855   8.80999947  53.76999664
H    22.34000015   9.06999969  57.90999985
H    14.01000023   9.31999969  57.77000046
H    24.87999916   9.44999981  55.13999939
H    24.43000031  10.57000065  56.46999741
S    13.32999992   7.68000031  53.27999878
C    10.64000034   7.48000050  54.06999969
C    11.96000004   7.73000002  54.40000153
C    12.32999992   8.19999981  55.70000076
C    11.26999950   8.31999969  56.59000015
C     9.89000034   8.21000004  56.30000305
C     8.82999992   8.55000019  57.18000031
C     7.51999950   8.31999969  56.83000183
C     7.23000002   7.63000011  55.61999893
C     8.23000050   7.35000038  54.72000122
C     9.59000015   7.68000031  55.00000000
C    13.76999950   8.34999943  55.84000015
C    14.42999935   7.96000004  54.65000153
C    15.78999996   7.67000008  54.65000153
C     5.79999971   7.22000027  55.35999680
H     5.38757229   7.45465755  54.37870026
H    10.40999985   7.03000021  53.11000061
H    11.56000042   8.61999989  57.60000229
H     9.04999924   8.86999989  58.20000076
H     6.75000000   8.48999977  57.56999969
H     8.11999989   6.84000015  53.75999832
H    16.34000015   7.40999985  53.75000000
H     5.15999985   7.60999966  56.16000366
H     5.92000008   6.12999964  55.44000244
S    17.20999908   9.47000027  51.98999786
C    19.93999863   9.61000061  51.44000244
C    18.68000031   9.22000027  51.03000259
C    18.44000053   8.67000008  49.72999954
C    19.51000023   8.30999947  48.94000244
C    20.79999924   8.76999950  49.31000137
C    21.97000122   8.47999954  48.55999756
C    23.19999886   9.01000023  48.86000061
C    23.32999992   9.80000019  50.02999878
C    22.27000046  10.08999920  50.86000061
C    21.02999878   9.47000027  50.54999924
C    17.00000000   8.55000019  49.52000046
C    16.20000076   8.93000031  50.63000107
C    14.85000038   9.21000004  50.52000046
C    24.70000076  10.26999950  50.47999954
H    25.16916466   9.67288113  51.26194382
H    20.06999969  10.18000031  52.36000061
H    19.36000061   7.79999971  47.98999786
H    21.83000183   7.96999979  47.61000061
H    24.04999924   8.98999977  48.18000031
H    22.36999893  10.71000004  51.75000000
H    14.30999947   9.63999939  51.36000061
H    25.30999947  10.19999981  49.56999969
H    24.61999893  11.28000069  50.89000320
S    13.89000034   7.46999979  47.11999893
C    11.13999939   7.49000025  47.71999741
C    12.42000008   7.92000008  48.00000000
C    12.74000072   8.67999935  49.18000031
C    11.78999996   8.86999989  50.15999603
C    10.48999977   8.34000015  49.98000336
C     9.50000000   8.42000008  51.00000000
C     8.18000031   8.10000038  50.73999786
C     7.85000038   7.53000021  49.47999954
C     8.82000065   7.30999994  48.53000259
C    10.15999985   7.75000000  48.70999908
C    14.18000031   8.76999950  49.36999893
C    14.96000099   8.18000031  48.34999847
C    16.35000038   8.05999947  48.39000320
C     6.44000006   7.07000017  49.19000244
H     5.99229431   7.64562130  48.37986755
H    10.95000076   7.11000013  46.72000122
H    12.05999947   9.25000000  51.14999771
H     9.72999954   8.93000031  51.93000031
H     7.34000015   8.42000008  51.33999634
H     8.59000015   6.83000040  47.57999802
H    16.92000008   7.72000027  47.52999878
H     5.68000031   7.07999992  49.98000336
H     6.48000002   6.00000000  48.94000244
