96

S    17.04000092   8.94999981  58.25000000
C    19.67000008   9.28999996  57.44999695
C    18.40999985   8.84000015  57.12999725
C    18.02999878   8.34000015  55.84000015
C    19.03000069   8.18000031  54.91000366
C    20.35000038   8.61999989  55.18000031
C    21.38000107   8.51000023  54.20999908
C    22.67000008   8.84000015  54.58000183
C    22.98999977   9.35999966  55.86000061
C    22.01999855   9.52000046  56.83000183
C    20.69000053   9.15000057  56.47999573
C    16.57999992   8.27000046  55.70999908
C    15.92000008   8.64999962  56.90999985
C    14.52999973   8.75000000  56.95999908
C    24.40999985   9.70000076  56.23000336
H    24.74408722   9.15266418  57.11142731
H    19.81999969   9.78999996  58.40000153
H    18.81999969   7.75000000  53.93000031
H    21.24000168   8.14999962  53.20000076
H    23.46999931   8.67999935  53.86000061
H    22.27000046   9.98000050  57.77999878
H    14.04000092   8.90999985  57.91999817
H    24.97999954   9.52999973  55.31000137
H    24.46000099  10.78999996  56.38000107
S    13.35999966   7.16000032  53.53000259
C    10.65999985   7.02000046  54.20999908
C    11.92999935   7.40999985  54.55999756
C    12.30999947   8.10999966  55.75000000
C    11.26000023   8.22000027  56.65000153
C     9.90999985   8.00000000  56.29000092
C     8.82000065   8.17000008  57.19999695
C     7.53000021   7.82999992  56.90999985
C     7.20000029   7.39000034  55.59999847
C     8.22000027   7.13000011  54.69999695
C     9.56999969   7.44000006  55.00999832
C    13.73000050   8.38999939  55.86999893
C    14.42000008   7.94000053  54.72000122
C    15.80999947   7.90000010  54.59999847
C     5.78999996   6.93000031  55.30000305
H     5.33437300   7.36426926  54.41010666
H    10.43000031   6.38999987  53.34999847
H    11.57999992   8.51000023  57.63999939
H     8.98999977   8.52000046  58.22000122
H     6.84999990   7.69999981  57.74000168
H     7.94000053   6.60000038  53.80000305
H    16.17000008   7.68000031  53.60000229
H     5.12000036   7.23999977  56.11000061
H     5.86000013   5.84000015  55.26000214
S    17.35999870   9.59000015  52.16999817
C    20.09000015   9.77000046  51.36000061
C    18.79999924   9.32999992  51.17000198
C    18.44000053   8.71000004  49.93000031
C    19.36000061   8.53999996  48.92000198
C    20.72000122   8.89000034  49.13999939
C    21.77999878   8.73000050  48.20000076
C    23.09999847   9.00000000  48.50000000
C    23.40999985   9.52999973  49.78000259
C    22.42000198   9.81999969  50.70000076
C    21.05999947   9.59000015  50.34000015
C    16.98999977   8.60000038  49.78000259
C    16.27000046   8.86999989  50.97000122
C    14.88000011   8.97000027  51.03000259
C    24.84999847   9.86999989  50.06999969
H    25.23368263   9.39394855  50.97236252
H    20.32999992  10.17000008  52.34000397
H    19.09000015   7.97999954  48.04000092
H    21.40000153   8.46000004  47.22000122
H    23.88000107   8.88000011  47.76000214
H    22.47999954  10.31999969  51.65999985
H    14.40000057   9.07999992  52.00000000
H    25.45999908   9.72999954  49.16999817
H    24.86000061  10.95000076  50.27000046
S    13.81999969   8.03999996  47.29000092
C    11.13999939   7.69999981  48.00000000
C    12.39999962   8.14000034  48.34999847
C    12.72999954   8.53999996  49.68000031
C    11.69999981   8.71999931  50.59000015
C    10.36000061   8.42000008  50.24000168
C     9.30999947   8.46000004  51.19999695
C     8.02999973   8.11999989  50.81999969
C     7.69999981   7.77999973  49.48999786
C     8.75000000   7.55000019  48.62999725
C    10.08999920   7.92999983  48.92000198
C    14.17000008   8.65999985  49.86000061
C    14.88000011   8.42000008  48.66000366
C    16.27000046   8.40999985  48.60000229
C     6.37000036   7.13000011  49.13999939
H     5.66646099   7.76958084  48.60701752
H    10.85000038   7.30999994  47.02000046
H    11.90000057   9.00000000  51.62000275
H     9.61000061   8.76000023  52.19999695
H     7.23000002   8.25000000  51.53999710
H     8.52999973   7.11999989  47.64999771
H    16.64999962   8.10999966  47.63000107
H     6.03999996   6.71999979  50.10000229
H     6.48000002   6.24000025  48.50000000
