96

S    17.20999908   8.82999992  58.27999878
C    19.93000031   8.56999969  57.60000229
C    18.60000038   8.40999985  57.27000427
C    18.26000023   7.86000013  55.98999786
C    19.27999878   7.60999966  55.08999634
C    20.63999939   7.88000011  55.37000275
C    21.68000031   7.88000011  54.38999939
C    22.98000145   8.07999992  54.79000092
C    23.35000038   8.56000042  56.06999969
C    22.34000015   8.67000008  57.00000000
C    20.98999977   8.30999947  56.70000076
C    16.80999947   7.86000013  55.90000153
C    16.06999969   8.36999989  57.00000000
C    14.68999958   8.32999992  57.15000153
C    24.71999931   9.15999985  56.35000229
H    25.17369652   8.55743504  57.13687897
H    20.15999985   9.15000057  58.48999786
H    19.04999924   7.30000019  54.08000183
H    21.47000122   7.60999966  53.36000061
H    23.72999954   7.96999979  54.02000046
H    22.60999870   9.19000053  57.90999985
H    14.27000046   8.69000053  58.08000183
H    25.29000092   9.31999969  55.43000031
H    24.56999969  10.19000053  56.70000076
S    13.53000069   7.09000015  53.59000397
C    10.80999947   6.80999994  54.29000092
C    12.09000015   7.20000029  54.61999893
C    12.48000050   7.67000008  55.91999817
C    11.46000004   8.01000023  56.77999878
C    10.14000034   7.55999994  56.52000046
C     9.06999969   7.86000013  57.42000198
C     7.81000042   7.40000010  57.14000320
C     7.44999981   6.83000040  55.87999725
C     8.45000076   6.61000013  54.95999908
C     9.80000019   6.94000006  55.27000046
C    13.92000008   7.86999989  56.06999969
C    14.63999939   7.48000050  54.92000198
C    16.03000069   7.40000010  54.82999802
C     5.98999977   6.63000011  55.58000183
H     5.64122820   7.22077656  54.73298264
H    10.64000034   6.35999966  53.30999756
H    11.64000034   8.59000015  57.68000031
H     9.27999973   8.47999954  58.27999878
H     6.97000027   7.71000004  57.75000000
H     8.26000023   6.21000004  53.96999741
H    16.54000092   6.94999981  53.97999573
H     5.42000008   6.78999996  56.51000214
H     5.86000013   5.58000040  55.31999969
S    13.55999947   5.17000008  50.37000275
C    10.88000107   4.69999981  51.02000427
C    12.20999908   4.44999981  51.26999664
C    12.69000053   3.86999989  52.48000336
C    11.73999977   3.45999980  53.40000153
C    10.34999943   3.54999995  53.13000107
C     9.39000034   2.89999986  53.95000076
C     8.05999947   3.09999990  53.64999771
C     7.63000011   3.84000015  52.50999832
C     8.52999973   4.32000017  51.59000015
C     9.90999985   4.19000006  51.90999985
C    14.13000011   3.91000009  52.63999939
C    14.72000027   4.74000025  51.65000153
C    16.03999901   5.14999962  51.70000076
C     6.19000006   4.26999998  52.34000397
H     5.73795938   3.75338221  51.49332428
H    10.59000015   5.26000023  50.13000107
H    12.02999973   3.03999996  54.36000061
H     9.77000046   2.29999995  54.77000427
H     7.35000038   2.68000007  54.34999847
H     8.10000038   4.85000038  50.73999786
H    16.50000000   5.65000010  50.84000015
H     5.49000025   4.25000000  53.18999863
H     6.25000000   5.35000038  52.12999725
S    17.39999962   3.51999998  55.05000305
C    20.06000137   4.15999985  54.47999954
C    18.72999954   4.26000023  54.13999939
C    18.29000092   4.80999994  52.90000153
C    19.19999886   5.32999992  52.01000214
C    20.59000015   5.17000008  52.22999954
C    21.60000038   5.49000025  51.29000092
C    22.93000031   5.19000006  51.52999878
C    23.31000137   4.59999990  52.76000214
C    22.36999893   4.39000034  53.74000168
C    20.98999977   4.59999990  53.48999786
C    16.84000015   4.69999981  52.76000214
C    16.21000099   4.00000000  53.81999969
C    14.88999939   3.58000016  53.76999664
C    24.77000046   4.23999977  52.94000244
H    25.19035530   4.74585009  53.80920792
H    20.36000061   3.61999989  55.37000275
H    18.81000137   5.59999990  51.03000259
H    21.22999954   5.96000004  50.38000107
H    23.62999916   5.40999985  50.72999954
H    22.60999870   4.05999994  54.75000000
H    14.35999966   3.09999990  54.59000015
H    25.26000023   4.51000023  52.00000000
H    24.86000061   3.15000010  53.09000015
