96

S    16.73999977   8.97000027  58.04000092
C    19.43000031   9.17000008  57.43000031
C    18.17000008   8.82000065  57.00000000
C    17.87999916   8.23999977  55.72000122
C    18.94000053   8.17000008  54.84000397
C    20.28000069   8.43000031  55.22999573
C    21.32999802   8.50000000  54.27000046
C    22.53999901   9.04999924  54.65000153
C    22.85000038   9.44999981  55.97000122
C    21.78999901   9.52999973  56.84999847
C    20.51000214   9.01000023  56.52000046
C    16.45000076   8.07999992  55.50000000
C    15.75000000   8.56999969  56.63000107
C    14.37000084   8.76000023  56.63999939
C    24.27999878   9.77999973  56.33999634
H    24.72127533   9.06114864  57.03038025
H    19.62000084   9.64999962  58.39000320
H    18.84000015   7.76999998  53.82999802
H    21.15999985   8.36000061  53.20999908
H    23.23999786   9.30000019  53.86000061
H    21.91999817  10.00000000  57.81999969
H    13.96000004   9.19999981  57.54000092
H    24.79999924   9.89000034  55.38000107
H    24.37999916  10.75000000  56.81999969
S    13.28999996   7.17000008  53.16999817
C    10.57000065   7.07000017  54.01000214
C    11.89000034   7.39000034  54.23999786
C    12.28999996   7.76999998  55.56000137
C    11.36000061   8.01000023  56.56000137
C    10.00000000   7.69999981  56.30000305
C     9.04999924   8.07999992  57.29000092
C     7.73000002   7.85000038  56.97000122
C     7.26999998   7.30999994  55.75000000
C     8.19000053   7.00000000  54.78000259
C     9.57999992   7.23999977  55.00999832
C    13.71000099   8.10000038  55.59999847
C    14.40999985   7.67000008  54.45000076
C    15.80000019   7.68000031  54.31999969
C     5.80999947   6.97000027  55.52999878
H     5.42621088   7.49593306  54.65581131
H    10.26999950   6.67000008  53.04999924
H    11.68000031   8.48999977  57.48000336
H     9.39999962   8.53999996  58.20999908
H     6.94999981   8.03999996  57.70000076
H     7.86000013   6.51000023  53.87000275
H    16.18999863   7.23999977  53.40999985
H     5.29999971   7.16000032  56.47999573
H     5.64000034   5.88999987  55.37000275
S    17.68000031   9.35000038  52.14000320
C    20.25000000   9.72000027  51.27999878
C    18.98999977   9.30000019  50.93999863
C    18.65999985   8.69000053  49.68000031
C    19.69000053   8.45000076  48.79000092
C    21.00000000   8.92000008  49.05000305
C    22.07999992   8.73000050  48.15000153
C    23.35000038   9.18000031  48.46000290
C    23.62999916   9.68000031  49.75999832
C    22.63000107   9.81000042  50.70000076
C    21.28999901   9.52999973  50.31999969
C    17.22999954   8.43000031  49.72999954
C    16.53000069   8.86999989  50.86999893
C    15.14000034   8.93000031  50.97999954
C    25.00999832  10.17000008  50.11000061
H    25.43017387   9.52193451  50.87913132
H    20.48999977  10.15999985  52.23999786
H    19.44000053   8.00000000  47.83000183
H    21.83000183   8.26000023  47.19999695
H    24.18000031   9.11999989  47.76000214
H    22.84000015  10.24000072  51.68000031
H    14.61999989   9.34000015  51.84999847
H    25.61000061  10.07999992  49.20000076
H    24.94999886  11.25000000  50.31000137
S    13.90999985   7.92000008  47.37999725
C    11.21000099   8.03999996  48.01000214
C    12.51000023   8.23999977  48.41999817
C    12.92000008   8.61999989  49.73999786
C    11.92999935   8.90999985  50.65000153
C    10.57000065   8.71000004  50.28999710
C     9.57999992   8.73999977  51.31000137
C     8.28999996   8.34000015  51.03000259
C     7.90000010   7.94000053  49.72000122
C     8.85000038   7.90000010  48.72000122
C    10.19999981   8.23000050  48.99000168
C    14.37000084   8.56999969  49.86999893
C    15.06000042   8.11999989  48.72000122
C    16.44000053   8.06999969  48.61999893
C     6.43000031   7.73999977  49.43000031
H     6.01036310   8.15252399  48.51248932
H    11.00000000   7.59999990  47.04000092
H    12.17000008   9.26000023  51.65000153
H     9.98000050   8.96000004  52.29000092
H     7.53999996   8.27999973  51.81000137
H     8.60000038   7.62000036  47.70000076
H    17.01000023   7.96000004  47.70000076
H     5.97000027   8.15999985  50.33000183
H     6.19999981   6.67999983  49.52999878
