96

S    16.75000000   8.56999969  58.41999817
C    19.40999985   8.76000023  57.58999634
C    18.15999985   8.19999981  57.41000366
C    17.76000023   7.53999996  56.19999695
C    18.68999863   7.36000013  55.19000244
C    20.02000046   7.82000017  55.35999680
C    21.09999847   7.63000011  54.45999908
C    22.40999985   7.97999954  54.69999695
C    22.63999939   8.80000019  55.84000015
C    21.63000107   9.17000008  56.70000076
C    20.35000038   8.56999969  56.53999710
C    16.31999969   7.44000006  56.00999832
C    15.67000008   7.96000004  57.15999985
C    14.32999992   8.27000046  57.02000046
C    24.04999924   9.27999973  56.05999756
H    24.45721817   8.77990627  56.93873596
H    19.73999977   9.36999989  58.43000031
H    18.37000084   6.85999966  54.27999878
H    20.92000008   7.14999962  53.50999832
H    23.19999886   7.78999996  53.99000168
H    21.77000046   9.72999954  57.62000275
H    13.73000050   8.71000004  57.81000137
H    24.68000031   9.21000004  55.15999603
H    24.11000061  10.36999893  56.18999863
S    13.04999924   6.90999985  53.59000397
C    10.34000015   7.32999992  54.23999786
C    11.67000008   7.42000008  54.58000183
C    12.09000015   7.95000029  55.84999847
C    11.13999939   8.30999947  56.79000092
C     9.78999996   7.95000029  56.56000137
C     8.85999966   7.96999979  57.63999939
C     7.59000015   7.50999975  57.36999893
C     7.14999962   7.03999996  56.10000229
C     8.05000019   7.00000000  55.06000137
C     9.36999989   7.48000050  55.27000046
C    13.53999996   7.88000011  55.93000031
C    14.23999977   7.28999996  54.85000229
C    15.60999966   7.07999992  54.86000061
C     5.75000000   6.53999996  55.86000061
H     5.29108524   6.95655346  54.96335220
H    10.01000023   6.84000015  53.33000183
H    11.49000072   8.47999954  57.80000305
H     9.26000023   8.28999996  58.59000397
H     6.81999969   7.69999981  58.11000061
H     7.86000013   6.44999981  54.13999939
H    16.17000008   6.86999989  53.95000076
H     5.13000011   6.86999989  56.70000076
H     5.75999975   5.46000004  55.98999786
S    13.76999950   5.25000000  50.47000122
C    11.13000011   4.69999981  51.11999893
C    12.46000099   4.55999994  51.44000244
C    12.90999985   3.81000018  52.57999802
C    12.02000046   3.28000021  53.48999786
C    10.64000034   3.55999994  53.29999924
C     9.59999943   3.07999992  54.13000107
C     8.26000023   3.22000003  53.85000229
C     7.83999968   3.81999993  52.63000107
C     8.82000065   4.36999989  51.83000183
C    10.21000004   4.23999977  52.09999847
C    14.34000015   4.03999996  52.74000168
C    14.96999931   4.67999983  51.63999939
C    16.34000015   4.92000008  51.58000183
C     6.38000011   4.15999985  52.43999863
H     5.94502497   3.66797853  51.57004929
H    10.81999969   5.14999962  50.18000031
H    12.30999947   2.56000018  54.25000000
H     9.98000050   2.57999992  55.01999664
H     7.51999950   2.94000006  54.59000015
H     8.55000019   5.01999950  51.00000000
H    16.59000015   5.55999994  50.73999786
H     5.86999989   3.89999986  53.37999725
H     6.38000011   5.25000000  52.36999893
S    17.65999985   3.47000003  55.00999832
C    20.34000015   3.84999990  54.29999924
C    19.01000023   4.05999994  54.02000046
C    18.56999969   4.63999987  52.78999710
C    19.45999908   5.18000031  51.88000107
C    20.81999969   4.99000025  52.21000290
C    21.80999947   5.55999994  51.36000061
C    23.15999985   5.38000011  51.56999969
C    23.61999893   4.73000002  52.75000000
C    22.70999908   4.21000004  53.63999939
C    21.31999969   4.33999968  53.39000320
C    17.13999939   4.42999983  52.63000107
C    16.48999977   3.81000018  53.73000336
C    15.11999989   3.60000014  53.81999969
C    25.10999870   4.63999987  52.97000122
H    25.38107300   4.98240757  53.96868896
H    20.55000114   3.42000008  55.27000046
H    19.27000046   5.56999969  50.87999725
H    21.54999924   6.03999996  50.41999817
H    23.71999931   6.01000023  50.87999725
H    22.93999863   3.77999997  54.61000061
H    14.65000057   3.10999990  54.66999817
H    25.62000084   5.27999973  52.22999954
H    25.45999908   3.61999989  52.75000000
