96

S    16.73999977   8.97000027  58.04000092
C    19.43000031   9.17000008  57.43000031
C    18.17000008   8.82000065  57.00000000
C    17.87999916   8.23999977  55.72000122
C    18.94000053   8.17000008  54.84000397
C    20.28000069   8.43000031  55.22999573
C    21.32999802   8.50000000  54.27000046
C    22.53999901   9.04999924  54.65000153
C    22.85000038   9.44999981  55.97000122
C    21.78999901   9.52999973  56.84999847
C    20.51000214   9.01000023  56.52000046
C    16.45000076   8.07999992  55.50000000
C    15.75000000   8.56999969  56.63000107
C    14.37000084   8.76000023  56.63999939
C    24.27999878   9.77999973  56.33999634
H    24.72127533   9.06114864  57.03038025
H    19.62000084   9.64999962  58.39000320
H    18.84000015   7.76999998  53.82999802
H    21.15999985   8.36000061  53.20999908
H    23.23999786   9.30000019  53.86000061
H    21.91999817  10.00000000  57.81999969
H    13.96000004   9.19999981  57.54000092
H    24.79999924   9.89000034  55.38000107
H    24.37999916  10.75000000  56.81999969
S    13.28999996   7.17000008  53.16999817
C    10.57000065   7.07000017  54.01000214
C    11.89000034   7.39000034  54.23999786
C    12.28999996   7.76999998  55.56000137
C    11.36000061   8.01000023  56.56000137
C    10.00000000   7.69999981  56.30000305
C     9.04999924   8.07999992  57.29000092
C     7.73000002   7.85000038  56.97000122
C     7.26999998   7.30999994  55.75000000
C     8.19000053   7.00000000  54.78000259
C     9.57999992   7.23999977  55.00999832
C    13.71000099   8.10000038  55.59999847
C    14.40999985   7.67000008  54.45000076
C    15.80000019   7.68000031  54.31999969
C     5.80999947   6.97000027  55.52999878
H     5.42621088   7.49593306  54.65581131
H    10.26999950   6.67000008  53.04999924
H    11.68000031   8.48999977  57.48000336
H     9.39999962   8.53999996  58.20999908
H     6.94999981   8.03999996  57.70000076
H     7.86000013   6.51000023  53.87000275
H    16.18999863   7.23999977  53.40999985
H     5.29999971   7.16000032  56.47999573
H     5.64000034   5.88999987  55.37000275
S    13.67000008   5.10999966  50.45000076
C    10.93000031   4.76000023  51.19999695
C    12.28000069   4.61999989  51.45000076
C    12.79999924   3.98000002  52.62000275
C    11.87000084   3.47000003  53.50999832
C    10.47999954   3.67000008  53.34000015
C     9.52999973   3.09999990  54.22999954
C     8.17000008   3.25999999  54.06000137
C     7.73000002   3.91999984  52.88000107
C     8.59000015   4.48999977  51.97000122
C     9.98999977   4.38000011  52.18999863
C    14.25000000   3.98000002  52.76000214
C    14.86999989   4.65999985  51.68000031
C    16.18999863   5.09000015  51.62000275
C     6.25999975   4.23000002  52.68000031
H     5.82043600   4.00312805  51.70870590
H    10.62000084   5.19000006  50.25000000
H    12.13000107   2.91000009  54.40000153
H     9.78999996   2.44000006  55.05000305
H     7.40999985   2.87999988  54.72999954
H     8.26000023   5.13000011  51.16000366
H    16.69999886   5.42000008  50.72000122
H     5.55000019   3.68999982  53.31999969
H     6.15999985   5.28999996  52.90999985
S    17.57999992   3.76999998  55.10000229
C    20.22000122   4.39000034  54.34000015
C    18.86999893   4.39000034  54.05000305
C    18.34000015   5.03000021  52.88999939
C    19.22999954   5.53999996  51.95999908
C    20.59000015   5.69000006  52.29999924
C    21.53000069   6.32000017  51.43000031
C    22.86000061   6.38000011  51.75000000
C    23.36999893   5.89999962  52.98999786
C    22.46999931   5.38000011  53.88999939
C    21.11000061   5.14999962  53.53000259
C    16.90000153   4.88000011  52.81000137
C    16.36999893   4.05000019  53.82999802
C    15.06000042   3.58000016  53.81999969
C    24.79000092   6.21000004  53.40000153
H    25.23133278   5.51241064  54.11182785
H    20.58000183   4.02999973  55.30000305
H    19.01000023   6.07999992  51.04000092
H    21.18000031   6.76000023  50.50000000
H    23.59999847   6.76000023  51.05999756
H    22.81999969   5.03999996  54.86000061
H    14.60999966   3.19999981  54.72999954
H    24.69000053   7.16000032  53.95000076
H    25.39999962   6.26999950  52.49000168
