96

S    17.21999931   8.64999962  58.18000031
C    19.95000076   8.73000050  57.44999695
C    18.63999939   8.43000031  57.14000320
C    18.27000046   7.94000053  55.84000015
C    19.23999977   7.76999998  54.86999893
C    20.59000015   8.03999996  55.15999603
C    21.60000038   7.90000010  54.16999817
C    22.92000008   8.03999996  54.50000000
C    23.29999924   8.42000008  55.81999969
C    22.34000015   8.63000011  56.79000092
C    20.95000076   8.50000000  56.47999573
C    16.81999969   7.85000038  55.70000076
C    16.10000038   8.30999947  56.84000015
C    14.72000027   8.42000008  56.91999817
C    24.75000000   8.69999981  56.13999939
H    25.16939545   8.01759243  56.87927246
H    20.34000015   9.19999981  58.34999847
H    18.98999977   7.50999975  53.85000229
H    21.25999832   7.59000015  53.18000031
H    23.57999992   7.88999987  53.64999771
H    22.60999870   8.78000069  57.83000183
H    14.28999996   8.89999962  57.78999710
H    25.38999939   8.60000038  55.26000214
H    24.93000031   9.75000000  56.39999771
S    13.60999966   7.13999987  53.31999969
C    10.86999989   7.37999964  53.95000076
C    12.18999958   7.50999975  54.31999969
C    12.51999950   8.05999947  55.59999847
C    11.46999931   8.36000061  56.45000076
C    10.10000038   8.14000034  56.17000198
C     9.01000023   8.25000000  57.08000183
C     7.72000027   8.02999973  56.63999939
C     7.44000006   7.55999994  55.33000183
C     8.48999977   7.27999973  54.47999954
C     9.81000042   7.67000008  54.84000397
C    13.94999981   8.02999973  55.81999969
C    14.67000008   7.55000019  54.68999863
C    16.04999924   7.50000000  54.59000015
C     6.02999973   7.07000017  55.10000229
H     5.51181269   7.61658096  54.31207275
H    10.57999992   6.91999960  53.01000214
H    11.72000027   8.52999973  57.50000000
H     9.19000053   8.53999996  58.11000061
H     6.90000010   8.19000053  57.32999802
H     8.38999939   6.67999983  53.57999802
H    16.50000000   7.22000027  53.63999939
H     5.40000010   7.05999947  55.98999786
H     6.06999969   6.05000019  54.72000122
S    17.23999977   9.39999962  52.18999863
C    19.89999962   9.17000008  51.65000153
C    18.63000107   8.82000065  51.25000000
C    18.30000114   8.30000019  49.97000122
C    19.34999847   7.99000025  49.12000275
C    20.69000053   8.14999962  49.54999924
C    21.77999878   7.73999977  48.74000168
C    23.09999847   8.00000000  49.05000305
C    23.39999962   8.88000011  50.12000275
C    22.34000015   9.18000031  50.93999863
C    20.95999908   8.85999966  50.77000046
C    16.84999847   8.30999947  49.80999756
C    16.13999939   8.94999981  50.86000061
C    14.75999928   9.09000015  50.87999725
C    24.82000160   9.31999969  50.40999985
H    25.34531975   8.68109703  51.11988831
H    20.10000038   9.56999969  52.63999939
H    19.17000008   7.53000021  48.15000153
H    21.53000069   7.27999973  47.78999710
H    23.84000015   7.63000011  48.34999847
H    22.62000084   9.68000031  51.86000061
H    14.34000015   9.63999939  51.72000122
H    25.36000061   9.22999954  49.45999908
H    24.77000046  10.36999893  50.72999954
S    13.68999958   7.30000019  47.50000000
C    10.90999985   7.36999989  48.13000107
C    12.23000050   7.55999994  48.47000122
C    12.56999969   8.19000053  49.71000290
C    11.54999924   8.56000042  50.56999969
C    10.19000053   8.27999973  50.27999878
C     9.13999939   8.61999989  51.18999863
C     7.85000038   8.26000023  50.87999725
C     7.49000025   7.64999962  49.65999985
C     8.51000023   7.23999977  48.81999969
C     9.85999966   7.60999966  49.05000305
C    13.99000072   8.50000000  49.86999893
C    14.72000027   7.96999979  48.77999878
C    16.10000038   7.85000038  48.72000122
C     6.12999964   7.13000011  49.25000000
H     5.69779110   7.77477074  48.48477554
H    10.67000008   6.91999960  47.16999817
H    11.76000023   8.93000031  51.56999969
H     9.44000053   9.04999924  52.14000320
H     7.07000017   8.52000046  51.59000015
H     8.28999996   6.65999985  47.93000031
H    16.45000076   7.46999979  47.76000214
H     5.47999954   7.05999947  50.13000107
H     6.26999950   6.09000015  48.92000198
