96

S    17.13999939   9.35999966  58.29999924
C    19.88999939   9.11999989  57.81999969
C    18.60000038   8.89999962  57.39999771
C    18.27999878   8.45000076  56.07999802
C    19.34999847   8.43999958  55.20000076
C    20.69999886   8.67999935  55.54000092
C    21.73999977   8.57999992  54.58000183
C    23.03999901   8.76999950  54.97000122
C    23.31999969   9.06999969  56.32999802
C    22.34000015   9.22000027  57.28000259
C    20.97999954   8.94999981  56.93000031
C    16.82999992   8.36999989  55.89000320
C    16.06999969   8.84000015  56.98999786
C    14.68000031   8.71999931  57.04999924
C    24.76000023   9.32999992  56.70999908
H    25.05929756   8.93093491  57.67915726
H    20.07999802   9.68000031  58.73000336
H    19.04999924   8.19999981  54.18000031
H    21.37000084   8.27999973  53.60000229
H    23.85000038   8.65999985  54.26000214
H    22.49000168   9.53999996  58.29999924
H    14.27999973   8.98999977  58.02999878
H    25.43999863   8.86999989  55.97999954
H    24.86000061  10.42000008  56.75000000
S    13.63000011   7.60999966  53.41999817
C    10.95999908   7.42999983  54.02000046
C    12.20000076   7.86999989  54.43999863
C    12.53000069   8.27000046  55.77000046
C    11.44000053   8.34000015  56.63000107
C    10.10000038   8.17000008  56.20999908
C     9.06000042   8.23000050  57.18000031
C     7.81000042   7.75000000  56.86000061
C     7.57000017   7.25000000  55.56000137
C     8.56000042   7.16000032  54.59999847
C     9.88000011   7.55000019  54.93000031
C    13.97999954   8.38000011  55.90000153
C    14.73000050   8.00000000  54.75999832
C    16.11999893   7.92000008  54.77000427
C     6.21000004   6.71999979  55.19000244
H     5.69723511   7.40368700  54.51343536
H    10.84000015   6.94000006  53.06000137
H    11.54999924   8.45000076  57.70000076
H     9.28999996   8.34999943  58.23999786
H     7.04999971   7.53000021  57.61000061
H     8.28999996   6.93000031  53.56999969
H    16.55999947   7.53999996  53.85000229
H     5.72000027   6.61999989  56.17000198
H     6.25999975   5.77000046  54.62999725
S    17.10000038   9.50000000  52.27000427
C    19.86999893   9.43000031  51.68000031
C    18.56999969   9.15999985  51.32999802
C    18.27999878   8.65999985  50.02999878
C    19.30999947   8.36999989  49.15000153
C    20.63999939   8.71999931  49.47000122
C    21.73000145   8.45000076  48.60000229
C    22.93000031   9.06000042  48.90999603
C    23.26999855   9.51000023  50.20999908
C    22.25000000   9.61999989  51.13999939
C    20.92000008   9.36999989  50.72999954
C    16.84000015   8.60999966  49.79000092
C    16.07999992   9.15999985  50.84999847
C    14.70999908   9.39000034  50.83000183
C    24.64999962  10.03999901  50.54000092
H    25.13548279   9.54737759  51.38245773
H    20.15999985   9.81000042  52.65999603
H    19.12999916   7.85000038  48.22000122
H    21.53000069   7.97999954  47.63999939
H    23.59999847   9.22000027  48.08000183
H    22.36999893  10.11000061  52.09999847
H    14.28999996   9.64999962  51.79999924
H    25.22999954   9.89999962  49.61999893
H    24.57999992  11.11999989  50.65999985
S    13.73000050   7.78999996  47.32999802
C    10.97000027   7.82000017  47.97000122
C    12.27000046   8.18000031  48.26000214
C    12.63000011   8.71999931  49.54000092
C    11.63000011   8.98999977  50.45000076
C    10.31999969   8.52000046  50.20000076
C     9.26999950   8.64000034  51.16000366
C     7.96000004   8.39999962  50.84000015
C     7.59000015   7.90000010  49.55999756
C     8.60000038   7.60999966  48.67000198
C     9.96999931   7.86999989  48.96999741
C    14.04999924   9.02999973  49.65000153
C    14.78000069   8.34000015  48.64999771
C    16.14999962   8.14999962  48.64999771
C     6.17000008   7.53000021  49.22000122
H     5.64994669   8.27802277  48.62158203
H    10.80999947   7.57999992  46.93000031
H    11.92000008   9.52000046  51.36000061
H     9.61000061   8.82000065  52.18000031
H     7.23000002   8.60999966  51.62000275
H     8.38000011   7.26999998  47.65999603
H    16.68000031   7.60999966  47.87000275
H     5.52999973   7.37999964  50.10000229
H     6.24000025   6.56000042  48.70999908
