96

S    16.55999947   8.53999996  57.94000244
C    19.29000092   8.56000042  57.31999969
C    18.00000000   8.25000000  56.95000076
C    17.67000008   7.73000002  55.65999985
C    18.72999954   7.67000008  54.75999832
C    20.03000069   8.10999966  55.08999634
C    21.11999893   8.14999962  54.16999817
C    22.43000031   8.31999969  54.54000092
C    22.70999908   8.80999947  55.84000015
C    21.70000076   8.92000008  56.76000214
C    20.38000107   8.48999977  56.43000031
C    16.23999977   7.50000000  55.50000000
C    15.52000046   7.94000053  56.63999939
C    14.14000034   8.10999966  56.70000076
C    24.15999985   9.00000000  56.25000000
H    24.50976562   8.36471176  57.06373978
H    19.43000031   9.09000015  58.27000046
H    18.45000076   7.23999977  53.80000305
H    20.81000137   7.94000053  53.15000153
H    23.13999939   8.05999947  53.75999832
H    21.84000015   9.30000019  57.77000046
H    13.69999981   8.43999958  57.63999939
H    24.79999924   8.88000011  55.35999680
H    24.26000214  10.07999992  56.38000107
S    12.97999954   7.13000011  53.04999924
C    10.27999973   6.84999990  53.73000336
C    11.54999924   7.23000002  54.09000015
C    11.92000008   7.59999990  55.43000031
C    10.93000031   7.57000017  56.38000107
C     9.56999969   7.40000010  56.02000427
C     8.50000000   7.59999990  56.95000076
C     7.21000004   7.30999994  56.59999847
C     6.90000010   6.78999996  55.31000137
C     7.90000010   6.70000029  54.36999893
C     9.22999954   7.11000013  54.65000153
C    13.35999966   7.73999977  55.59999847
C    14.06999969   7.36999989  54.43000031
C    15.44000053   7.14999962  54.40999985
C     5.44000053   6.50000000  55.04000092
H     5.14796495   7.14817619  54.21375275
H    10.03000069   6.53999996  52.71999741
H    11.21000099   7.72000027  57.42000198
H     8.78000069   7.79999971  57.97999954
H     6.47000027   7.50999975  57.36999893
H     7.86999989   6.40999985  53.33000183
H    15.98000050   6.74000025  53.54999924
H     4.82999992   6.76000023  55.90999985
H     5.19999981   5.45000029  54.85000229
S    16.92000008   8.82999992  51.97000122
C    19.55000114   9.25000000  51.30000305
C    18.35000038   8.69999981  50.93000031
C    18.07999992   8.14999962  49.62999725
C    19.14999962   7.96999979  48.77999878
C    20.42000008   8.43999958  49.16999817
C    21.54999924   8.30000019  48.30999756
C    22.80999947   8.76000023  48.61000061
C    23.02999878   9.42000008  49.85000229
C    21.97000122   9.56999969  50.70000076
C    20.65000153   9.11999989  50.41999817
C    16.63999939   8.05999947  49.41999817
C    15.90000057   8.42000008  50.58000183
C    14.52000046   8.60000038  50.58000183
C    24.38999939  10.01000023  50.15999603
H    24.90266609   9.46173096  50.95035934
H    19.68000031   9.90999985  52.15000153
H    19.04000092   7.44999981  47.83000183
H    21.31999969   7.72000027  47.42000198
H    23.64000130   8.69000053  47.90999985
H    22.19000053  10.06999969  51.65000153
H    14.04999924   8.82000065  51.52999878
H    25.03000069  10.03999901  49.27000046
H    24.25000000  11.07999992  50.38999939
S    13.40000057   7.16000032  47.09000015
C    10.72999954   7.17000008  47.68000031
C    11.97999954   7.60999966  48.06000137
C    12.34000015   8.26000023  49.27999878
C    11.26999950   8.39999962  50.13999939
C     9.90999985   8.07999992  49.86999893
C     8.78999996   8.25000000  50.72999954
C     7.49000025   7.94000053  50.41999817
C     7.32999992   7.18999958  49.22000122
C     8.36999989   6.97000027  48.34999847
C     9.70000076   7.40999985  48.61999893
C    13.78999901   8.31999969  49.41999817
C    14.52000046   7.76000023  48.34000015
C    15.90000057   7.64999962  48.29999924
C     5.96000004   6.67000008  48.83999634
H     5.57393885   7.22049475  47.98208618
H    10.44999981   6.72999954  46.72000122
H    11.49000072   8.84000015  51.11000061
H     8.93999958   8.75000000  51.68000031
H     6.67999983   8.28999996  51.05999756
H     8.19999981   6.32999992  47.49000168
H    16.46999931   7.21000004  47.49000168
H     5.36000013   6.84999990  49.73999786
H     6.10000038   5.59000015  48.68000031
