96

S    17.02999878   8.43000031  58.25000000
C    19.67000008   8.86999989  57.56999969
C    18.40999985   8.50000000  57.14000320
C    18.07999992   8.01000023  55.84000015
C    19.11000061   7.90999985  54.93000031
C    20.43000031   8.30000019  55.26000214
C    21.55999947   8.23000050  54.38999939
C    22.84000015   8.52999973  54.80999756
C    23.00000000   9.30999947  55.97999954
C    21.90999985   9.52000046  56.79000092
C    20.65999985   8.86999989  56.56000137
C    16.63999939   7.86999989  55.66999817
C    15.93999958   8.10999966  56.88000107
C    14.55999947   8.27000046  56.93000031
C    24.37999916   9.85999966  56.27999878
H    24.79337883   9.32545948  57.13526917
H    19.81999969   9.28999996  58.55999756
H    18.96000099   7.55000019  53.90999603
H    21.38000107   7.88999987  53.37999725
H    23.71999931   8.32999992  54.20999908
H    22.06000137  10.03999901  57.72999573
H    14.09000015   8.34000015  57.90999985
H    25.06999969   9.82999992  55.43000031
H    24.33000183  10.88999939  56.66999817
S    13.53000069   7.46999979  53.11000061
C    10.90999985   7.00000000  53.89999771
C    12.13999939   7.50999975  54.22000122
C    12.43999958   7.95000029  55.54999924
C    11.38000011   7.97999954  56.44000244
C    10.06000042   7.53999996  56.17000198
C     8.89000034   7.65999985  56.97999954
C     7.68000031   7.16000032  56.58000183
C     7.50999975   6.53999996  55.31999969
C     8.61999989   6.38999987  54.52000046
C     9.88000011   6.96000004  54.86999893
C    13.88000011   8.13000011  55.72000122
C    14.55999947   7.79999971  54.52000046
C    15.93999958   7.67000008  54.47999954
C     6.11999989   6.17999983  54.85000229
H     5.72967625   6.79742050  54.04096603
H    10.78999996   6.52999973  52.93000031
H    11.67000008   8.39999962  57.39999771
H     9.09000015   8.18000031  57.90999985
H     6.77999973   7.36999989  57.15999985
H     8.52000046   6.05000019  53.48999786
H    16.51000023   7.40000010  53.59000397
H     5.53999996   6.19000006  55.77999878
H     6.14000034   5.13000011  54.50000000
S    13.45000076   5.25000000  50.37000275
C    10.82999992   4.51999998  51.02000427
C    12.17000008   4.44000006  51.29000092
C    12.65999985   3.89999986  52.52999878
C    11.73999977   3.38000011  53.43000031
C    10.34999943   3.35000014  53.13999939
C     9.40999985   2.79000020  54.05000305
C     8.07999992   2.66000009  53.73000336
C     7.59000015   3.25000000  52.52999878
C     8.47999954   3.91999984  51.72000122
C     9.89000034   3.91000009  51.90000153
C    14.06999969   4.17000008  52.76000214
C    14.60999966   4.86999989  51.65999985
C    15.93999958   5.26999998  51.66999817
C     6.14000034   3.08999991  52.15000153
H     5.81287479   3.72291660  51.32507324
H    10.47000027   5.18000031  50.24000168
H    12.09000015   3.00000000  54.38000107
H     9.81000042   2.43000007  55.00000000
H     7.40000010   2.29999995  54.50000000
H     8.21000004   4.44999981  50.80999756
H    16.36000061   5.86000013  50.86000061
H     5.93999958   2.03999996  51.86999893
H     5.59999990   3.30999994  53.08000183
S    17.47999954   3.63000011  54.99000168
C    20.07999802   4.32000017  54.22000122
C    18.71999931   4.41000032  53.99000168
C    18.15999985   5.10999966  52.87000275
C    19.01000023   5.69999981  51.95000076
C    20.40999985   5.66999960  52.11000061
C    21.31999969   6.35999966  51.25999832
C    22.67999840   6.21999979  51.39999771
C    23.15999985   5.38999987  52.43999863
C    22.32000160   4.79999971  53.34999847
C    20.89999962   4.88999987  53.22000122
C    16.72999954   4.86999989  52.76000214
C    16.22999954   4.05000019  53.80000305
C    14.85999966   3.81000018  53.86000061
C    24.64999962   5.17000008  52.57999802
H    25.07597160   5.62436867  53.47453690
H    20.34000015   3.73000002  55.08999634
H    18.61999893   6.34000015  51.16000366
H    20.90999985   6.71000004  50.31000137
H    23.36000061   6.53999996  50.61000061
H    22.65000153   4.30999994  54.26000214
H    14.45000076   3.08999991  54.55999756
H    25.26000023   5.42000008  51.70000076
H    24.80999947   4.07999992  52.61000061
