96

S    16.81999969   8.96000004  58.13000107
C    19.45999908   9.21000004  57.31999969
C    18.20000076   8.73000050  57.04000092
C    17.84000015   8.21000004  55.75000000
C    18.82999992   8.10000038  54.79999924
C    20.15000153   8.55000019  55.02999878
C    21.22999954   8.43000031  54.10999680
C    22.49000168   8.89000034  54.41999817
C    22.76000023   9.39000034  55.70999908
C    21.77000046   9.53999996  56.65999985
C    20.45000076   9.11999989  56.31999969
C    16.40999985   7.92999983  55.72000122
C    15.71000004   8.46000004  56.84000015
C    14.32999992   8.57999992  56.91999817
C    24.11999893   9.90999985  56.11999893
H    24.58999443   9.25485516  56.85347748
H    19.65999985   9.63000011  58.29999924
H    18.56999969   7.60999966  53.86000061
H    21.07999992   7.95000029  53.15000153
H    23.31999969   8.82999992  53.70999908
H    22.01000023  10.06999969  57.57999802
H    13.94999981   9.00000000  57.84999847
H    24.75000000   9.92000008  55.21999741
H    23.97999954  10.93000031  56.51000214
S    13.22000027   7.42000008  53.29999924
C    10.52999973   7.14999962  54.06000137
C    11.78999996   7.64999962  54.31999969
C    12.17000008   8.14000034  55.61000061
C    11.19999981   8.38999939  56.56000137
C     9.86999989   7.99000025  56.25000000
C     8.82999992   8.18000031  57.19999695
C     7.53000021   7.83999968  56.90000153
C     7.30000019   6.90999985  55.86000061
C     8.27000046   6.63999987  54.91000366
C     9.55999947   7.20000029  55.08999634
C    13.61999989   8.23000050  55.77000046
C    14.32000065   7.71000004  54.65999985
C    15.70000076   7.50000000  54.59000015
C     5.88999987   6.42000008  55.61000061
H     5.30465269   7.16239166  55.06748581
H    10.31999969   6.57000017  53.15999985
H    11.31000042   8.82999992  57.55000305
H     9.06000042   8.84000015  58.04000092
H     6.71999979   8.39999962  57.36000061
H     8.13000011   6.15999985  53.95000076
H    16.15999985   7.34000015  53.62999725
H     5.36000013   6.06999969  56.49000168
H     6.09000015   5.55000019  54.95999908
S    13.55999947   5.35000038  50.43000031
C    10.95999908   4.76999998  51.10000229
C    12.28999996   4.59000015  51.40999603
C    12.64000034   4.00999975  52.65999603
C    11.69000053   3.45000005  53.50000000
C    10.34000015   3.44000006  53.08000183
C     9.32999992   2.73999977  53.80000305
C     8.02999973   2.92000008  53.40000153
C     7.65999985   3.82999992  52.36999893
C     8.60000038   4.35999966  51.51000214
C     9.94999981   4.15999985  51.88999939
C    14.09000015   4.13000011  52.75000000
C    14.70999908   4.82999992  51.68000031
C    16.07999992   5.09999990  51.65000153
C     6.19999981   4.05000019  52.05999756
H     5.76657963   3.32526398  51.37079239
H    10.69000053   5.23999977  50.15999603
H    11.90000057   2.89999986  54.40999985
H     9.50000000   2.20000005  54.72000122
H     7.30000019   2.29999995  53.89999771
H     8.47000027   5.05000019  50.68000031
H    16.52000046   5.69999981  50.86000061
H     5.64000034   4.11999989  53.00000000
H     6.02999973   4.97000027  51.47999573
S    17.50000000   3.86000013  55.04000092
C    20.20999908   4.42000008  54.38000107
C    18.86999893   4.40000010  54.05000305
C    18.37000084   4.88000011  52.80000305
C    19.26000023   5.55999994  51.98999786
C    20.65999985   5.53999996  52.22999954
C    21.68999863   5.97000027  51.35000229
C    23.00000000   6.02999973  51.76000214
C    23.45999908   5.28999996  52.88000107
C    22.52000046   4.74000025  53.73000336
C    21.12999916   4.90999985  53.43000031
C    16.94000053   4.65000010  52.64999771
C    16.28000069   4.05999994  53.76999664
C    14.93000031   3.72000003  53.79000092
C    24.93000031   5.05000019  53.09999847
H    25.26447868   5.31331348  54.10343933
H    20.63999939   4.03999996  55.31000137
H    18.93000031   5.92000008  51.02000427
H    21.45000076   6.48999977  50.41999817
H    23.68999863   6.46000004  51.04000092
H    22.70999908   4.41000032  54.73999786
H    14.52999973   3.25000000  54.68000031
H    25.63999939   5.49000025  52.37999725
H    25.12000084   3.98000002  53.01000214
