96

S    16.90000153   8.96000004  58.29000092
C    19.63000107   8.97999954  57.55000305
C    18.31999969   8.64999962  57.27000427
C    17.92000008   8.19000053  55.97999954
C    18.79999924   8.11999989  54.91000366
C    20.15000153   8.43000031  55.20000076
C    21.07000160   8.30999947  54.12000275
C    22.39000130   8.67000008  54.29000092
C    22.79000092   9.22999954  55.52999878
C    21.94000053   9.27999973  56.59999847
C    20.56999969   8.88000011  56.50000000
C    16.46999931   8.14999962  55.84000015
C    15.75000000   8.56000042  56.98999786
C    14.35999966   8.63000011  57.05999756
C    24.25000000   9.61000061  55.66999817
H    24.79724312   9.06275845  56.43756104
H    19.88999939   9.44999981  58.48999786
H    18.43000031   7.79999971  53.95000076
H    20.72999954   7.68000031  53.29999924
H    23.01000214   8.64999962  53.40000153
H    22.29999924   9.81000042  57.48000336
H    13.94000053   9.09000015  57.95000076
H    24.69000053   9.38000011  54.68999863
H    24.37999916  10.62999916  56.05999756
S    13.14000034   7.53000021  53.43999863
C    10.47999954   7.44000006  54.22000122
C    11.77000046   7.82999992  54.52000046
C    12.15000057   8.27999973  55.81999969
C    11.13999939   8.43000031  56.75000000
C     9.77999973   8.19000053  56.42000198
C     8.73999977   8.30000019  57.38999939
C     7.46999979   7.86000013  57.09000015
C     7.13999987   7.30999994  55.83000183
C     8.11999989   7.13999987  54.86999893
C     9.42000008   7.65999985  55.13999939
C    13.60000038   8.30999947  55.93000031
C    14.27000046   7.86000013  54.77000427
C    15.65999985   7.85000038  54.73999786
C     5.73999977   6.80000019  55.56999969
H     5.19120359   7.39868736  54.84302139
H    10.36999893   6.98999977  53.23999786
H    11.35000038   8.67999935  57.78999710
H     8.93000031   8.65999985  58.40000153
H     6.69000053   7.92999983  57.84000015
H     7.83999968   6.65000010  53.94000244
H    16.04999924   7.59999990  53.75999832
H     5.31000042   6.93000031  56.56999969
H     5.73999977   5.73999977  55.28999710
S    17.23999977   9.44999981  52.11000061
C    19.96000099   9.40999985  51.37000275
C    18.63999939   9.15999985  51.06999969
C    18.29000092   8.60999966  49.79000092
C    19.32999992   8.39999962  48.89999771
C    20.69000053   8.63000011  49.20000076
C    21.73000145   8.65999985  48.22999954
C    23.03999901   8.93000031  48.55999756
C    23.36999893   9.26999950  49.89999771
C    22.37999916   9.51000023  50.80999756
C    21.04000092   9.11000061  50.51000214
C    16.84999847   8.53999996  49.62999725
C    16.17000008   9.10000038  50.73999786
C    14.78999996   9.25000000  50.83000183
C    24.75000000   9.82999992  50.18000031
H    25.26294136   9.25294113  50.94941330
H    20.17999840   9.80000019  52.36000061
H    19.07999992   8.06999969  47.90000153
H    21.28000069   8.59000015  47.23999786
H    23.75999832   9.06000042  47.76000214
H    22.65999985  10.10000038  51.68000031
H    14.28999996   9.55000019  51.75000000
H    25.35000038   9.84000015  49.26000214
H    24.64999962  10.88000107  50.48999786
S    13.43999958   7.76999998  47.43999863
C    10.73999977   8.00000000  48.22999954
C    12.07999992   8.19000053  48.48999786
C    12.55000019   8.67000008  49.75000000
C    11.59000015   8.98999977  50.70000076
C    10.21000004   8.76999950  50.51000214
C     9.25000000   8.92000008  51.55000305
C     7.96999979   8.43000031  51.38999939
C     7.53999996   7.77999973  50.20999908
C     8.43999958   7.72000027  49.16999817
C     9.77999973   8.19000053  49.27000046
C    14.00000000   8.80000019  49.77000427
C    14.65999985   8.30999947  48.61999893
C    16.03000069   8.09000015  48.57999802
C     6.15000010   7.23000002  49.98000336
H     5.68836594   7.80526733  49.17746735
H    10.29000092   7.59999990  47.32999802
H    12.02999973   9.36999989  51.62000275
H     9.63999939   9.31999969  52.49000168
H     7.40000010   8.52000046  52.30999756
H     8.15999985   7.25000000  48.22999954
H    16.47999954   7.60999966  47.71999741
H     5.50000000   7.03000021  50.84000015
H     6.25000000   6.19999981  49.61999893
