96

S    16.70999908   9.13000011  58.15999985
C    19.37999916   9.13000011  57.39999771
C    18.09000015   8.75000000  57.11000061
C    17.75000000   8.05000019  55.90000153
C    18.68999863   7.73999977  54.93000031
C    20.03000069   8.06999969  55.24000168
C    21.00000000   8.00000000  54.20000076
C    22.30999947   8.30999947  54.47999954
C    22.73999977   8.76999950  55.75000000
C    21.76000214   8.94999981  56.70000076
C    20.36999893   8.69000053  56.49000168
C    16.31000137   7.99000025  55.70000076
C    15.69000053   8.59000015  56.81999969
C    14.29999924   8.73000050  56.81999969
C    24.11999893   9.34000015  55.94999695
H    24.59096909   8.91184425  56.83485413
H    19.57999992   9.76000023  58.26000214
H    18.42000008   7.25000000  54.00000000
H    20.63999939   7.83999968  53.18999863
H    23.06999969   8.48999977  53.72000122
H    21.94999886   9.44999981  57.64999771
H    13.68999958   9.23999977  57.55000305
H    24.76000023   9.17000008  55.06999969
H    23.94000053  10.39999962  56.17000198
S    13.00000000   7.30000019  53.36000061
C    10.34999943   7.37999964  54.20000076
C    11.68000031   7.57000017  54.51000214
C    12.06999969   8.10000038  55.77000046
C    11.13000011   8.48999977  56.70000076
C     9.76000023   8.27999973  56.39999771
C     8.73000050   8.55000019  57.35000229
C     7.40999985   8.25000000  57.14000320
C     7.00999975   7.60999966  55.93999863
C     7.99000025   7.28999996  55.02999878
C     9.35999966   7.63000011  55.19000244
C    13.53000069   8.13000011  55.81999969
C    14.17000008   7.71000004  54.61999893
C    15.55999947   7.63999987  54.56999969
C     5.53999996   7.30999994  55.72999954
H     5.16245842   7.83713341  54.85381699
H    10.11999989   6.97000027  53.22000122
H    11.44000053   9.11999989  57.54000092
H     9.18000031   9.03999996  58.22000122
H     6.80000019   8.52999973  58.00000000
H     7.76000023   6.80999994  54.06999969
H    16.11999893   7.11000013  53.80000305
H     4.88000011   7.53000021  56.58000183
H     5.52999973   6.21999979  55.63000107
S    17.20999908   9.35000038  52.25999832
C    19.88000107   9.39999962  51.53999710
C    18.59000015   9.04999924  51.18999863
C    18.22000122   8.38999939  49.98000336
C    19.19999886   7.92000008  49.12000275
C    20.51000214   8.34999943  49.40999985
C    21.45000076   8.14999962  48.34999847
C    22.73999977   8.61999989  48.46000290
C    23.12999916   9.30999947  49.64000320
C    22.22999954   9.55999947  50.63999939
C    20.88000107   9.09000015  50.59000015
C    16.77999878   8.32999992  49.80999756
C    16.10999870   8.84000015  50.96000290
C    14.73999977   9.03999996  51.00000000
C    24.51999855   9.86999989  49.82999802
H    25.08122826   9.20220757  50.48358536
H    20.10999870  10.00000000  52.41000366
H    19.02000046   7.73000002  48.06000137
H    21.18000031   7.88000011  47.34000397
H    23.38999939   8.40999985  47.62000275
H    22.50000000  10.05000019  51.56999969
H    14.22000027   9.43000031  51.86999893
H    25.05000114  10.00000000  48.88000107
H    24.37000084  10.84000015  50.34000015
S    13.53000069   7.63999987  47.50999832
C    10.82999992   7.73999977  48.22999954
C    12.13999939   8.00000000  48.54999924
C    12.51999950   8.48999977  49.84000397
C    11.56000042   8.82999992  50.77999878
C    10.21000004   8.52999973  50.48999786
C     9.18000031   8.85000038  51.42000198
C     7.86999989   8.48999977  51.19999695
C     7.53000021   7.81000042  50.00000000
C     8.50000000   7.48000050  49.09000015
C     9.85999966   7.90000010  49.25000000
C    13.96999931   8.56000042  49.93000031
C    14.65999985   8.01000023  48.81999969
C    16.03999901   7.95000029  48.68000031
C     6.06999969   7.44999981  49.80999756
H     5.63686514   8.07485008  49.02893448
H    10.46000004   7.30999994  47.29999924
H    11.78999996   9.15000057  51.79000092
H     9.47000027   9.31999969  52.36000061
H     7.13999987   8.96000004  51.84999847
H     8.25000000   6.78999996  48.29000092
H    16.52000046   7.68000031  47.74000168
H     5.63000011   7.50000000  50.80999756
H     6.05999994   6.40999985  49.47000122
