96

S    16.75000000   8.56999969  58.41999817
C    19.40999985   8.76000023  57.58999634
C    18.15999985   8.19999981  57.41000366
C    17.76000023   7.53999996  56.19999695
C    18.68999863   7.36000013  55.19000244
C    20.02000046   7.82000017  55.35999680
C    21.09999847   7.63000011  54.45999908
C    22.40999985   7.97999954  54.69999695
C    22.63999939   8.80000019  55.84000015
C    21.63000107   9.17000008  56.70000076
C    20.35000038   8.56999969  56.53999710
C    16.31999969   7.44000006  56.00999832
C    15.67000008   7.96000004  57.15999985
C    14.32999992   8.27000046  57.02000046
C    24.04999924   9.27999973  56.05999756
H    24.45721817   8.77990627  56.93873596
H    19.73999977   9.36999989  58.43000031
H    18.37000084   6.85999966  54.27999878
H    20.92000008   7.14999962  53.50999832
H    23.19999886   7.78999996  53.99000168
H    21.77000046   9.72999954  57.62000275
H    13.73000050   8.71000004  57.81000137
H    24.68000031   9.21000004  55.15999603
H    24.11000061  10.36999893  56.18999863
S    13.04999924   6.90999985  53.59000397
C    10.34000015   7.32999992  54.23999786
C    11.67000008   7.42000008  54.58000183
C    12.09000015   7.95000029  55.84999847
C    11.13999939   8.30999947  56.79000092
C     9.78999996   7.95000029  56.56000137
C     8.85999966   7.96999979  57.63999939
C     7.59000015   7.50999975  57.36999893
C     7.14999962   7.03999996  56.10000229
C     8.05000019   7.00000000  55.06000137
C     9.36999989   7.48000050  55.27000046
C    13.53999996   7.88000011  55.93000031
C    14.23999977   7.28999996  54.85000229
C    15.60999966   7.07999992  54.86000061
C     5.75000000   6.53999996  55.86000061
H     5.29108524   6.95655346  54.96335220
H    10.01000023   6.84000015  53.33000183
H    11.49000072   8.47999954  57.80000305
H     9.26000023   8.28999996  58.59000397
H     6.81999969   7.69999981  58.11000061
H     7.86000013   6.44999981  54.13999939
H    16.17000008   6.86999989  53.95000076
H     5.13000011   6.86999989  56.70000076
H     5.75999975   5.46000004  55.98999786
S    16.97999954   8.76000023  52.37999725
C    19.70999908   8.93999958  51.69000244
C    18.40999985   8.67000008  51.32999802
C    18.01000023   8.30000019  50.00999832
C    19.04000092   8.07999992  49.12000275
C    20.38000107   8.39999962  49.45999908
C    21.42000008   8.31999969  48.50000000
C    22.72000122   8.65999985  48.79000092
C    23.08000183   9.22000027  50.04000092
C    22.11000061   9.31999969  51.00999832
C    20.76999855   8.90999985  50.73999786
C    16.55999947   8.22000027  49.82999802
C    15.86999989   8.57999992  51.00999832
C    14.48999977   8.71999931  51.04999924
C    24.47999954   9.68999958  50.38000107
H    25.05605125   9.02860832  51.02716827
H    19.85000038   9.35999966  52.68000031
H    18.82999992   7.77999973  48.09999847
H    21.09000015   7.76000023  47.63000107
H    23.52999878   8.43999958  48.09999847
H    22.34000015   9.85999966  51.93000031
H    14.09000015   8.89999962  52.04000092
H    24.94999886   9.68000031  49.38999939
H    24.53000069  10.75000000  50.63999939
S    13.40000057   7.40999985  47.43000031
C    10.71000004   7.27999973  48.20000076
C    12.01000023   7.60999966  48.52000427
C    12.32999992   8.23000050  49.77000427
C    11.36000061   8.43999958  50.73999786
C    10.01999950   8.14999962  50.41999817
C     8.96000004   8.34999943  51.35000229
C     7.63000011   8.06999969  51.14999771
C     7.36000013   7.42000008  49.91000366
C     8.32999992   7.18999958  48.96999741
C     9.70000076   7.53000021  49.15999985
C    13.76999950   8.43000031  49.87999725
C    14.47000027   7.96000004  48.74000168
C    15.85000038   7.95000029  48.64999771
C     5.95000029   6.96000004  49.62999725
H     5.48906898   7.44929552  48.77195740
H    10.44000053   6.94999981  47.19999695
H    11.69000053   8.85000038  51.69000244
H     9.18000031   8.85000038  52.29000092
H     6.86999989   8.15999985  51.93000031
H     8.09000015   6.74000025  48.01000214
H    16.31999969   7.57999992  47.74000168
H     5.23000002   7.07999992  50.45999908
H     5.92999983   5.88000011  49.43000031
