96

S    17.05999947   9.11999989  58.04999924
C    19.76000023   9.13999939  57.43000031
C    18.47999954   8.85999966  57.02000046
C    18.12000084   8.38999939  55.72000122
C    19.19000053   8.31999969  54.85000229
C    20.55999947   8.50000000  55.19000244
C    21.61999893   8.27999973  54.26000214
C    22.88999939   8.64000034  54.64000320
C    23.15999985   9.18000031  55.91999817
C    22.17000008   9.25000000  56.88000107
C    20.84000015   8.89000034  56.53999710
C    16.68000031   8.25000000  55.58000183
C    15.95999908   8.71000004  56.72000122
C    14.57999992   8.89000034  56.69000244
C    24.51999855   9.70000076  56.31999969
H    25.01541138   9.00642395  56.99942398
H    19.96000099   9.50000000  58.43999863
H    18.88000107   7.95000029  53.88000107
H    21.35999870   7.86999989  53.27999878
H    23.67000198   8.47000027  53.89999771
H    22.43000031   9.65999985  57.84999847
H    14.14999962   9.22999954  57.62000275
H    25.10000038   9.88000011  55.40000153
H    24.48999786  10.67999935  56.79999924
S    13.45999908   7.27999973  53.20999908
C    10.75000000   7.32999992  53.87000275
C    12.03999996   7.64999962  54.20000076
C    12.41000080   8.34000015  55.40000153
C    11.40999985   8.59000015  56.31999969
C    10.06000042   8.26000023  56.04999924
C     9.06999969   8.36999989  57.06999969
C     7.76000023   8.10000038  56.73999786
C     7.37999964   7.42999983  55.54999924
C     8.36999989   7.23999977  54.61000061
C     9.72000027   7.65999985  54.79000092
C    13.85000038   8.48999977  55.56000137
C    14.53999996   7.86999989  54.48999786
C    15.93000031   7.85000038  54.45999908
C     5.96000004   7.00000000  55.24000168
H     5.53839207   7.53594208  54.38964081
H    10.48999977   6.84000015  52.93000031
H    11.64000034   8.88000011  57.34000397
H     9.47000027   8.53999996  58.06000137
H     6.98000002   8.22000027  57.48000336
H     8.15999985   6.70000029  53.68999863
H    16.46000099   7.63999987  53.54000092
H     5.26000023   7.14999962  56.06999969
H     5.88000011   5.91000032  55.13999939
S    17.76000023   9.52000046  51.91999817
C    20.45999908   9.57999992  51.19999695
C    19.17000008   9.21000004  50.89000320
C    18.75000000   8.56000042  49.68999863
C    19.68000031   8.45000076  48.67000198
C    21.00000000   8.93000031  48.81000137
C    22.01999855   8.82999992  47.81000137
C    23.29999924   9.21000004  48.13999939
C    23.65999985   9.63999939  49.43999863
C    22.70999908   9.73999977  50.43000031
C    21.35000038   9.46000004  50.10000229
C    17.28999901   8.45000076  49.65000153
C    16.55999947   8.93999958  50.76000214
C    15.17000008   8.97999954  50.86999893
C    25.09000015  10.00000000  49.78000259
H    25.45166779   9.57450676  50.71608734
H    20.71000099   9.86999989  52.22000122
H    19.29000092   8.11999989  47.70999908
H    21.87000084   8.56999969  46.77000046
H    24.02000046   9.10000038  47.32999802
H    22.95999908  10.06000042  51.44000244
H    14.81999969   9.30999947  51.84000015
H    25.76000023   9.70000076  48.96999741
H    25.15999985  11.09000015  49.91000366
S    14.11999893   8.10000038  47.12999725
C    11.44000053   7.75000000  47.84999847
C    12.68000031   8.26000023  48.15999985
C    12.96000004   8.73999977  49.47999954
C    11.97000027   8.89999962  50.41999817
C    10.62999916   8.57999992  50.07999802
C     9.52999973   8.78000069  50.94999695
C     8.25000000   8.47999954  50.52000046
C     8.05999947   7.76999998  49.31000137
C     9.11000061   7.44000006  48.48999786
C    10.39999962   7.96000004  48.80000305
C    14.40000057   8.85999966  49.71000290
C    15.11999989   8.45000076  48.55999756
C    16.47999954   8.18000031  48.54000092
C     6.65999985   7.36999989  48.88999939
H     6.17608213   8.03894424  48.17835617
H    11.28000069   7.22000027  46.91999817
H    12.18999958   9.17000008  51.45000076
H     9.64999962   9.18000031  51.95000076
H     7.39000034   8.60000038  51.17000198
H     8.89999962   6.97000027  47.52999878
H    16.94000053   7.94000053  47.57999802
H     6.11999989   7.40000010  49.84000397
H     6.65999985   6.28000021  48.72000122
