96

S    16.92000008   8.80000019  58.22000122
C    19.68000031   8.82000065  57.56999969
C    18.37000084   8.57999992  57.22999954
C    18.02999878   8.17000008  55.90000153
C    19.06999969   7.96000004  55.00999832
C    20.39999962   8.34999943  55.27000046
C    21.40999985   8.19999981  54.27000046
C    22.72000122   8.36999989  54.65999985
C    23.06999969   8.82000065  55.96000290
C    22.11000061   8.88000011  56.93999863
C    20.72999954   8.69999981  56.63000107
C    16.59000015   8.05000019  55.68000031
C    15.86999989   8.28999996  56.88000107
C    14.51000023   8.53999996  56.88000107
C    24.47999954   9.26999950  56.29000092
H    24.97249603   8.52768803  56.91810989
H    19.93000031   9.00000000  58.61000061
H    18.84000015   7.63999987  54.00000000
H    21.18999863   7.63999987  53.36999893
H    23.54999924   8.13000011  54.01000214
H    22.34999847   9.07999992  57.97999954
H    14.00000000   8.80999947  57.80000305
H    25.06000137   9.52999973  55.38999939
H    24.34999847  10.21999931  56.81999969
S    13.38000107   7.69999981  53.20000076
C    10.70000076   7.32999992  54.06000137
C    11.95000076   7.86999989  54.23999786
C    12.30999947   8.38000011  55.52999878
C    11.36000061   8.50000000  56.52000046
C    10.03999901   8.01999950  56.32999802
C     9.00000000   8.15999985  57.29999924
C     7.72000027   7.75000000  56.98999786
C     7.42000008   7.04999971  55.79000092
C     8.45000076   6.75000000  54.93000031
C     9.72999954   7.36000013  55.08999634
C    13.75000000   8.36000061  55.70999908
C    14.48999977   8.09000015  54.52999878
C    15.86999989   7.88999987  54.48999786
C     6.01999998   6.61000013  55.44000244
H     5.48871946   7.27587175  54.75996017
H    10.25000000   6.97000027  53.13999939
H    11.63000011   8.82000065  57.51999664
H     9.22999954   8.48999977  58.30999756
H     6.97000027   7.96000004  57.74000168
H     8.30000019   6.28000021  53.96999741
H    16.39999962   7.55000019  53.61000061
H     5.44000053   6.48000002  56.36000061
H     6.12999964   5.59000015  55.06000137
S    17.39999962   9.50000000  52.04999924
C    20.12000084   9.68999958  51.32999802
C    18.81999969   9.32999992  51.00999832
C    18.52000046   8.69999981  49.77000427
C    19.52000046   8.43000031  48.85000229
C    20.86000061   8.82999992  49.08000183
C    21.94000053   8.75000000  48.15000153
C    23.22999954   9.10000038  48.48999786
C    23.48999977   9.65999985  49.77000427
C    22.46000099   9.78999996  50.66999817
C    21.11999893   9.40999985  50.35999680
C    17.09000015   8.46000004  49.61000061
C    16.36000061   8.90999985  50.72999954
C    15.00000000   9.19000053  50.70000076
C    24.93000031   9.85999966  50.19000244
H    25.31530762   9.11792660  50.88926315
H    20.32999992  10.22999954  52.25000000
H    19.17000008   8.01000023  47.90999985
H    21.78999901   8.10999966  47.29000092
H    24.07999992   8.93999958  47.84999847
H    22.62000084  10.21000004  51.65999985
H    14.50000000   9.72999954  51.49000168
H    25.59999847   9.76000023  49.33000183
H    25.17999840  10.85000038  50.59999847
S    13.92000008   7.95000029  47.04000092
C    11.16000080   8.03999996  47.69000244
C    12.46000099   8.36000061  47.97000122
C    12.86000061   8.90999985  49.22999954
C    11.87000084   9.18000031  50.15999603
C    10.53999996   8.73999977  49.94999695
C     9.64999962   8.64000034  51.05999756
C     8.32999992   8.32999992  50.83000183
C     7.90999985   7.82999992  49.56999969
C     8.80999947   7.75000000  48.53000259
C    10.15999985   8.14999962  48.69999695
C    14.28999996   8.89999962  49.52000046
C    14.98000050   8.39999962  48.39000320
C    16.31999969   8.05999947  48.50999832
C     6.47000027   7.42999983  49.33000183
H     6.09209490   7.82929564  48.38880539
H    10.85000038   7.42000008  46.84999847
H    11.97999954   9.48000050  51.19999695
H    10.01999950   8.88000011  52.04999924
H     7.69000006   8.31999969  51.70999908
H     8.36000061   7.31999969  47.63999939
H    16.90999985   7.76000023  47.63999939
H     5.82000017   7.63999987  50.18000031
H     6.58999968   6.34000015  49.31999969
