96

S    17.17000008   9.26999950  58.09999847
C    19.86999893   9.30999947  57.31999969
C    18.55999947   8.97000027  57.04000092
C    18.20000076   8.36000061  55.79000092
C    19.17000008   8.06999969  54.85000229
C    20.50000000   8.43999958  55.13999939
C    21.55999947   8.19000053  54.22000122
C    22.86999893   8.50000000  54.50000000
C    23.19999886   9.21000004  55.68999863
C    22.27000046   9.22000027  56.70000076
C    20.89999962   8.96000004  56.42000198
C    16.75000000   8.38000011  55.63000107
C    16.05999947   8.86999989  56.77000046
C    14.68000031   8.86999989  56.93000031
C    24.61000061   9.71000004  55.96000290
H    25.25067139   8.91983986  56.35152435
H    20.10999870   9.82999992  58.25000000
H    19.04000092   7.39000034  54.01000214
H    21.35999870   7.50000000  53.40999985
H    23.75999832   8.22000027  53.94000244
H    22.40999985   9.61999989  57.70000076
H    14.19000053   9.25000000  57.81999969
H    25.07999802  10.14000034  55.06999969
H    24.56999969  10.52999973  56.69000244
S    13.50000000   7.35000038  53.44999695
C    10.75000000   7.30000019  54.22999954
C    12.06999969   7.63000011  54.45999908
C    12.46999931   8.34000015  55.63000107
C    11.52999973   8.56999969  56.62000275
C    10.19999981   8.10999966  56.45000076
C     9.22999954   8.14999962  57.49000168
C     7.90999985   7.82000017  57.29000092
C     7.49000025   7.37999964  56.00000000
C     8.38000011   7.27999973  54.95999908
C     9.73999977   7.65999985  55.15999603
C    13.90999985   8.40999985  55.84999847
C    14.60000038   7.97999954  54.68999863
C    15.98000050   7.88000011  54.58000183
C     6.01999998   7.17000008  55.72999954
H     5.67015123   7.84827805  54.95176697
H    10.39000034   6.78999996  53.34000015
H    11.80999947   8.89999962  57.61000061
H     9.61000061   8.46000004  58.46000290
H     7.14999962   7.88000011  58.06000137
H     7.99000025   6.93000031  54.01000214
H    16.31000137   7.30999994  53.72000122
H     5.51000023   7.18999958  56.70000076
H     5.86999989   6.14000034  55.38999939
S    17.69000053   9.75000000  52.08000183
C    20.42000008   9.65999985  51.45000076
C    19.11999893   9.39000034  51.10000229
C    18.79999924   8.80000019  49.82999802
C    19.80999947   8.56999969  48.93000031
C    21.12999916   9.01000023  49.18000031
C    22.18000031   8.76999950  48.23999786
C    23.42000008   9.30999947  48.47999954
C    23.71999931   9.89999962  49.72999954
C    22.77000046   9.98999977  50.72000122
C    21.44000053   9.56999969  50.45999908
C    17.36999893   8.57999992  49.66999817
C    16.68000031   9.00000000  50.83000183
C    15.29000092   9.11000061  50.86999893
C    25.13999939  10.29999924  50.06999969
H    25.68724251   9.53243828  50.61724472
H    20.68000031  10.06000042  52.43000031
H    19.68000031   8.09000015  47.95999908
H    22.06999969   8.14000034  47.36999893
H    24.20999908   9.13999939  47.75000000
H    22.90999985  10.43000031  51.70999908
H    14.73000050   9.40999985  51.75000000
H    25.61000061  10.52999973  49.10999680
H    25.09000015  11.21999931  50.65999985
S    14.13000011   7.86000013  47.28000259
C    11.39000034   7.90999985  47.95000076
C    12.69000053   8.23999977  48.23999786
C    13.09999943   8.67000008  49.54999924
C    12.07999992   8.88000011  50.45999908
C    10.71000004   8.61999989  50.20000076
C     9.72000027   8.71999931  51.22000122
C     8.43000031   8.38000011  50.90000153
C     8.01000023   7.95000029  49.61000061
C     8.98999977   7.81000042  48.64999771
C    10.34999943   8.14000034  48.89999771
C    14.53999996   8.69999981  49.75999832
C    15.21999931   8.14999962  48.64999771
C    16.61000061   8.02999973  48.61999893
C     6.58999968   7.59000015  49.23999786
H     6.10789680   8.27770615  48.54520416
H    11.09000015   7.49000025  47.00000000
H    12.35999966   9.26999950  51.43000031
H    10.03000069   8.92000008  52.23999786
H     7.73999977   8.34000015  51.73999786
H     8.75000000   7.42000008  47.67000198
H    17.10000038   7.72000027  47.70999908
H     5.95000029   7.53999996  50.13000107
H     6.56000042   6.54999971  48.88000107
