96

S    17.12000084   9.09000015  58.18999863
C    19.73999977   9.26000023  57.36000061
C    18.45999908   8.82000065  57.06999969
C    18.07999992   8.30999947  55.79000092
C    19.11999893   8.19999981  54.87999725
C    20.48000145   8.55000019  55.11000061
C    21.44000053   8.23999977  54.10999680
C    22.72999954   8.64999962  54.38000107
C    23.06999969   9.32999992  55.56999969
C    22.09000015   9.64999962  56.47999573
C    20.75000000   9.18000031  56.37000275
C    16.62999916   8.22000027  55.72999954
C    15.97000027   8.69999981  56.88999939
C    14.59000015   8.73999977  57.01000214
C    24.44999886   9.82999992  55.93999863
H    24.89712524   9.28351212  56.77037811
H    20.02000046   9.72000027  58.29999924
H    18.81000137   7.86000013  53.89999771
H    21.07000160   7.72000027  53.22999954
H    23.62999916   8.30999947  53.88000107
H    22.29000092  10.06000042  57.45999908
H    14.22999954   8.71999931  58.02999878
H    25.10000038   9.84000015  55.06000137
H    24.28999901  10.88999939  56.16000366
S    13.43999958   7.64999962  53.29999924
C    10.77999973   7.46000004  53.96999741
C    12.05000019   7.79999971  54.38000107
C    12.39999962   8.17000008  55.72000122
C    11.33999920   8.30000019  56.59000015
C    10.01000023   8.01000023  56.19999695
C     8.93000031   7.96000004  57.12999725
C     7.69999981   7.49000025  56.75000000
C     7.36000013   7.36000013  55.38000107
C     8.36000061   7.30000019  54.43999863
C     9.68999958   7.53000021  54.87999725
C    13.81999969   8.47999954  55.86999893
C    14.47000027   8.00000000  54.69999695
C    15.85999966   7.90999985  54.61000061
C     5.88000011   7.17000008  55.12000275
H     5.50326300   7.68890238  54.23857880
H    10.71000004   6.97000027  53.00000000
H    11.50000000   8.71000004  57.57999802
H     9.03999996   8.02999973  58.20000076
H     6.89000034   7.25000000  57.43999863
H     8.19999981   7.04999971  53.39000320
H    16.21999931   7.44000006  53.69999695
H     5.26999998   7.37999964  56.00999832
H     5.78999996   6.07999992  55.00000000
S    17.65999985   9.56999969  52.15000153
C    20.36000061   9.61999989  51.44000244
C    19.06999969   9.30000019  51.11000061
C    18.65999985   8.76999950  49.85000229
C    19.68000031   8.60000038  48.92000198
C    21.02999878   8.94999981  49.15999985
C    22.10000038   8.82000065  48.22999954
C    23.38999939   9.19999981  48.50999832
C    23.68000031   9.82999992  49.75000000
C    22.72000122   9.85999966  50.72999954
C    21.37000084   9.48000050  50.45999908
C    17.21999931   8.65999985  49.69999695
C    16.54000092   9.15000057  50.84000015
C    15.14999962   9.11999989  50.89000320
C    25.10999870  10.21999931  50.06999969
H    25.53588867   9.58116722  50.84370041
H    20.59000015  10.08999920  52.38999939
H    19.55000114   8.34999943  47.87000275
H    21.86000061   8.38000011  47.27000427
H    24.13999939   9.11999989  47.72999573
H    22.88999939  10.07999992  51.77999878
H    14.61999989   9.38000011  51.79999924
H    25.65000153  10.11999989  49.12000275
H    25.22999954  11.26000023  50.38000107
S    14.15999985   8.22000027  47.12999725
C    11.44999981   8.10000038  47.71999741
C    12.69999981   8.55000019  48.08000183
C    13.02999973   8.97000027  49.40999985
C    12.00000000   9.17000008  50.31999969
C    10.71000004   8.73999977  49.93999863
C     9.65999985   8.80000019  50.90000153
C     8.34999943   8.53999996  50.56999969
C     8.07999992   7.96000004  49.29999924
C     9.02999973   7.90000010  48.31999969
C    10.38000011   8.23000050  48.63999939
C    14.45000076   8.85999966  49.69999695
C    15.17000008   8.38000011  48.57999802
C    16.54999924   8.19000053  48.55999756
C     6.63999987   7.62000036  48.96999741
H     6.23431015   8.32461834  48.24403000
H    11.28999901   7.97999954  46.65000153
H    12.13000107   9.30999947  51.38999939
H     9.89000034   9.15999985  51.90000153
H     7.59999990   8.76000023  51.32999802
H     8.84000015   7.50000000  47.31999969
H    17.11000061   8.07999992  47.63999939
H     6.07999992   7.73000002  49.91000366
H     6.53999996   6.57000017  48.68000031
