96

S    16.82999992   9.02999973  58.26000214
C    19.59000015   9.11000061  57.44999695
C    18.25000000   8.90999985  57.19999695
C    17.80999947   8.34999943  55.96000290
C    18.78000069   8.13000011  55.00000000
C    20.13999939   8.48999977  55.13000107
C    21.14000130   8.15999985  54.18000031
C    22.47999954   8.31999969  54.45999908
C    22.88000107   8.89999962  55.68999863
C    21.94000053   9.22999954  56.63000107
C    20.55000114   9.00000000  56.40999603
C    16.38000107   8.14000034  55.83000183
C    15.67999935   8.56000042  56.98999786
C    14.29999924   8.71999931  56.98999786
C    24.31999969   9.27999973  55.96000290
H    24.75871086   8.69269180  56.76666260
H    19.93999863   9.38000011  58.43999863
H    18.48999977   7.36000013  54.27999878
H    20.81999969   7.86999989  53.18999863
H    23.25000000   8.10000038  53.72000122
H    22.32999992   9.63000011  57.56000137
H    13.86000061   9.27999973  57.81000137
H    24.92000198   9.19999981  55.05000305
H    24.34000015  10.31999969  56.31000137
S    13.15999985   7.32999992  53.44999695
C    10.43000031   7.42000008  54.09000015
C    11.72999954   7.73000002  54.43000031
C    12.15000057   8.14000034  55.72999954
C    11.14999962   8.43999958  56.63999939
C     9.80000019   8.19000053  56.26999664
C     8.80999947   8.31999969  57.28000259
C     7.51999950   7.90000010  57.09000015
C     7.09999990   7.40000010  55.81999969
C     8.05000019   7.13999987  54.86000061
C     9.39000034   7.57999992  55.04000092
C    13.59000015   8.15999985  55.91999817
C    14.28999996   7.71000004  54.77000427
C    15.67999935   7.63999987  54.72999954
C     5.63000011   7.20000029  55.54000092
H     5.26520777   7.63632107  54.61013412
H    10.31000042   6.91999960  53.13000107
H    11.32999992   8.92000008  57.58999634
H     9.02000046   8.85000038  58.20999908
H     6.90999985   8.19000053  57.94000244
H     7.73000002   6.76999998  53.88999939
H    16.21999931   7.32999992  53.83999634
H     5.00999975   7.50999975  56.39999771
H     5.59999990   6.11000013  55.41999817
S    17.28999901   9.59000015  52.18000031
C    19.96000099   9.86999989  51.35000229
C    18.70000076   9.39999962  51.11999893
C    18.30999947   8.88000011  49.84000397
C    19.32999992   8.64000034  48.93000031
C    20.68000031   8.92000008  49.22999954
C    21.78999901   8.56000042  48.40999985
C    23.08000183   8.89999962  48.73000336
C    23.38000107   9.76000023  49.82999802
C    22.36000061  10.01999950  50.70999908
C    21.02999878   9.57999992  50.45999908
C    16.86000061   8.78999996  49.73999786
C    16.13999939   9.06999969  50.93000031
C    14.75000000   9.10000038  50.96000290
C    24.79999924  10.21999931  50.07999802
H    25.26840782   9.68062115  50.90326309
H    20.19000053  10.34000015  52.29999924
H    19.01000023   8.15999985  48.01000214
H    21.54999924   8.17000008  47.43000031
H    23.85000038   8.69999981  47.98999786
H    22.55000114  10.67000008  51.56999969
H    14.13000011   9.34000015  51.81999969
H    25.38999939   9.85000038  49.22000122
H    24.99000168  11.28000069  50.25000000
S    13.78000069   8.02999973  47.21000290
C    11.10999966   7.69000006  47.84999847
C    12.34000015   8.17000008  48.23999786
C    12.68000031   8.61999989  49.54999924
C    11.64999962   8.64999962  50.47999954
C    10.34000015   8.23000050  50.12000275
C     9.23999977   8.45000076  51.00000000
C     7.94000053   8.18000031  50.66999817
C     7.73000002   7.49000025  49.43999863
C     8.71999931   7.34000015  48.50000000
C    10.05000019   7.75000000  48.79000092
C    14.09999943   8.86999989  49.75000000
C    14.80999947   8.53999996  48.55999756
C    16.18999863   8.45000076  48.55999756
C     6.34000015   7.07000017  49.03999710
H     5.98382807   7.67549276  48.20655823
H    10.98000050   7.30000019  46.84000015
H    11.98999977   8.82999992  51.49000168
H     9.51000023   9.02000046  51.88000107
H     7.11000013   8.45000076  51.31000137
H     8.47999954   6.84999990  47.56000137
H    16.72000122   8.02999973  47.70000076
H     5.60999966   7.32999992  49.82999802
H     6.26999950   5.98999977  48.82999802
