96

S    16.38000107   9.02000046  58.27999878
C    19.10000038   8.82000065  57.71999741
C    17.80999947   8.53999996  57.34000397
C    17.48999977   7.88000011  56.11000061
C    18.53999901   7.55999994  55.27000046
C    19.86999893   7.92999983  55.54000092
C    20.93000031   7.77999973  54.59999847
C    22.23999977   8.09000015  54.88999939
C    22.43999863   8.85000038  56.06999969
C    21.48999977   8.94999981  57.05999756
C    20.13999939   8.60000038  56.79000092
C    16.04999924   7.76999998  55.91999817
C    15.34999943   8.47000027  56.93999863
C    13.96999931   8.56999969  56.93999863
C    23.84000015   9.32999992  56.40999603
H    24.31726837   8.51793098  56.95850372
H    19.23999977   9.32999992  58.67000198
H    18.27000046   7.04999971  54.34999847
H    20.88000107   7.37999964  53.59000397
H    23.08000183   7.90000010  54.22999954
H    21.64999962   9.44000053  58.02000046
H    13.48999977   9.06000042  57.78999710
H    24.44999886   9.61999989  55.54999924
H    23.65999985  10.24000072  56.97999954
S    12.90999985   7.00000000  53.46000290
C    10.27999973   6.80999994  54.22999954
C    11.47999954   7.44999981  54.40999985
C    11.77000046   8.10000038  55.65000153
C    10.72000027   8.38999939  56.50000000
C     9.42000008   7.94000053  56.20999908
C     8.30000019   8.05999947  57.09000015
C     7.03999996   7.55999994  56.86999893
C     6.83000040   6.86999989  55.65000153
C     7.88000011   6.58999968  54.79000092
C     9.15999985   7.17000008  55.01999664
C    13.22000027   8.15999985  55.83000183
C    13.94999981   7.55000019  54.78000259
C    15.29999924   7.22000027  54.87999725
C     5.42000008   6.51000023  55.26000214
H     5.04294109   7.19297409  54.49877167
H    10.26999950   5.86000013  53.68999863
H    10.86999989   8.90999985  57.43999863
H     8.39999962   8.75000000  57.93000031
H     6.21000004   7.83999968  57.50999832
H     7.68000031   6.02999973  53.88999939
H    15.73999977   6.63000011  54.06999969
H     4.77999973   6.50000000  56.14999771
H     5.45000029   5.51999998  54.78000259
S    17.13000107   8.86999989  52.44999695
C    19.82999992   9.07999992  51.65000153
C    18.53999901   8.71000004  51.37000275
C    18.15000153   8.30999947  50.05000305
C    19.18000031   8.15999985  49.13999939
C    20.53999901   8.47999954  49.36000061
C    21.55999947   8.30000019  48.37999725
C    22.86999893   8.51000023  48.75000000
C    23.23999786   8.90999985  50.05000305
C    22.25000000   9.11000061  50.97999954
C    20.86999893   8.89999962  50.70000076
C    16.70999908   8.38999939  49.87999725
C    16.03000069   8.78000069  51.05999756
C    14.63999939   8.73999977  51.12999725
C    24.68000031   9.28999996  50.30000305
H    25.14215660   8.67853260  51.07500076
H    20.25000000   9.61000061  52.50999832
H    18.84000015   7.68000031  48.22000122
H    21.28999901   8.01999950  47.36999893
H    23.64000130   8.42000008  47.98999786
H    22.40999985   9.35999966  52.02000046
H    14.13000011   8.86999989  52.06999969
H    25.29999924   9.26000023  49.40000153
H    24.69000053  10.34000015  50.63000107
S    13.57999992   7.50000000  47.50999832
C    10.85000038   7.40999985  48.13999939
C    12.13999939   7.69000006  48.53000259
C    12.48999977   8.15999985  49.84000397
C    11.50000000   8.46000004  50.76000214
C    10.14000034   8.28999996  50.38999939
C     9.02999973   8.48999977  51.25000000
C     7.76999998   8.11999989  50.84999847
C     7.44999981   7.59000015  49.56999969
C     8.52999973   7.39000034  48.74000168
C     9.85000038   7.77999973  49.06999969
C    13.90999985   8.43999958  49.97000122
C    14.63000107   8.10999966  48.80000305
C    16.02000046   8.09000015  48.69999695
C     6.01000023   7.34000015  49.19000244
H     5.56848955   7.97378111  48.42091751
H    10.52999973   6.83000040  47.27000427
H    11.77999973   8.78999996  51.75000000
H     9.23999977   8.78999996  52.27000427
H     7.00999975   8.27999973  51.60999680
H     8.42000008   6.93000031  47.76000214
H    16.46000099   7.57000017  47.84999847
H     5.44000053   7.53000021  50.11000061
H     5.84999990   6.32000017  48.83999634
