96

S    16.87000084   8.85999966  58.13000107
C    19.59000015   8.85999966  57.50000000
C    18.29000092   8.60999966  57.09999847
C    17.87999916   8.21000004  55.79000092
C    18.89000130   7.90000010  54.89999771
C    20.23999977   8.19999981  55.20999908
C    21.31000137   8.05999947  54.27999878
C    22.60999870   8.40999985  54.58000183
C    22.89999962   8.97999954  55.84000015
C    21.93000031   9.02999973  56.81999969
C    20.58000183   8.76000023  56.49000168
C    16.44000053   8.03999996  55.63999939
C    15.76000023   8.50000000  56.79000092
C    14.37000084   8.60999966  56.86999893
C    24.27999878   9.50000000  56.18000031
H    24.82089424   8.84523296  56.86323929
H    19.73999977   9.26999950  58.48999786
H    18.68000031   7.42000008  53.94000244
H    21.11000061   7.63999987  53.29999924
H    23.36000061   8.31999969  53.80000305
H    22.18000031   9.22999954  57.87000275
H    13.97999954   8.80000019  57.87000275
H    24.82000160   9.72000027  55.26000214
H    24.07999992  10.44999981  56.69000244
S    13.15999985   6.96000004  53.47999954
C    10.48999977   7.13000011  54.13000107
C    11.78999996   7.32999992  54.54000092
C    12.18000031   8.02999973  55.72999954
C    11.14999962   8.36000061  56.58000183
C     9.80000019   8.06999969  56.29000092
C     8.80000019   8.23000050  57.29999924
C     7.50000000   7.85000038  57.08000183
C     7.14999962   7.37999964  55.79000092
C     8.06999969   7.23000002  54.78000259
C     9.44999981   7.46999979  55.02999878
C    13.63000011   8.21000004  55.76000214
C    14.29999924   7.67000008  54.62999725
C    15.69000053   7.60999966  54.54000092
C     5.73000002   6.97000027  55.50000000
H     5.31111050   7.53798532  54.66932297
H    10.21000004   6.75000000  53.15000153
H    11.40999985   8.96000004  57.44999695
H     9.15000057   8.63000011  58.25000000
H     6.84999990   8.10999966  57.90999985
H     7.73000002   6.70000029  53.88999939
H    16.27000046   7.16000032  53.74000168
H     5.01999950   6.97000027  56.32999802
H     5.77000046   5.92000008  55.15999603
S    13.43000031   5.33999968  50.40000153
C    10.80000019   4.85000038  51.19999695
C    12.13999939   4.61999989  51.38000107
C    12.65999985   3.79999995  52.43999863
C    11.77000046   3.24000001  53.34000015
C    10.38000011   3.42999983  53.15000153
C     9.48999977   2.82000017  54.08000183
C     8.14999962   3.09999990  53.95999908
C     7.62000036   3.89999986  52.90999985
C     8.47999954   4.51999998  52.04000092
C     9.88000011   4.28999996  52.11999893
C    14.11000061   3.88999987  52.55000305
C    14.65000057   4.63000011  51.46999741
C    15.98000050   5.05999994  51.53999710
C     6.11999989   4.02999973  52.74000168
H     5.78520012   3.62396550  51.78546143
H    10.52999973   5.65999985  50.52000046
H    12.13000107   2.87999988  54.29999924
H     9.80000019   2.07999992  54.81999969
H     7.42000008   2.59000015  54.56999969
H     8.02999973   5.03000021  51.18999863
H    16.39999962   5.73000002  50.79000092
H     5.65000010   3.52999973  53.60000229
H     5.75000000   5.05999994  52.90000153
S    17.31999969   3.45000005  54.98000336
C    19.93000031   4.09000015  54.38000107
C    18.60000038   4.26000023  54.06000137
C    18.12999916   4.90000010  52.87000275
C    19.03000069   5.46999979  52.00000000
C    20.40999985   5.31000042  52.28000259
C    21.34000015   5.89999962  51.38999939
C    22.70000076   5.69999981  51.53999710
C    23.18000031   5.13999987  52.74000168
C    22.27999878   4.59999990  53.62999725
C    20.86999893   4.59000015  53.43999863
C    16.69000053   4.76999998  52.70000076
C    16.15999985   3.98000002  53.75999832
C    14.85999966   3.49000001  53.66000366
C    24.68000031   4.99000025  52.88000107
H    24.92817879   5.22399616  53.91525650
H    20.29000092   3.56999993  55.27000046
H    18.81000137   5.89999962  51.03000259
H    21.04000092   6.39999962  50.47000122
H    23.29999924   6.21999979  50.79000092
H    22.55000114   4.28000021  54.64000320
H    14.42000008   2.84999990  54.41999817
H    25.13000107   5.69999981  52.18999863
H    24.84999847   3.91999984  52.68000031
