96

S    17.31999969   9.19000053  58.27999878
C    20.06999969   9.23999977  57.63999939
C    18.77000046   8.94999981  57.28000259
C    18.37000084   8.34000015  56.04999924
C    19.34000015   8.10999966  55.08999634
C    20.68000031   8.47999954  55.38999939
C    21.68000031   8.31999969  54.38999939
C    23.02999878   8.47999954  54.61999893
C    23.39999962   8.84000015  55.93999863
C    22.47999954   8.98999977  56.95999908
C    21.07999992   8.90999985  56.70000076
C    16.93000031   8.30000019  55.86000061
C    16.20000076   8.63000011  57.02000046
C    14.80999947   8.60999966  57.08000183
C    24.87999916   9.04999924  56.11999893
H    25.30525017   8.45465088  56.92797089
H    20.29000092   9.52999973  58.66000366
H    19.17000008   7.73000002  54.09000015
H    21.38000107   7.90000010  53.43000031
H    23.78000069   8.23000050  53.88000107
H    22.77000046   9.23999977  57.97000122
H    14.30999947   8.97000027  57.97999954
H    25.35000038   8.84000015  55.14999771
H    24.90999985  10.13000011  56.31000137
S    13.80000019   7.94000053  53.27999878
C    11.09000015   7.86999989  54.06000137
C    12.41000080   8.10999966  54.36999893
C    12.69000053   8.30000019  55.76000214
C    11.68000031   8.38999939  56.69000244
C    10.31999969   8.11999989  56.40999603
C     9.21000004   8.09000015  57.29999924
C     7.90999985   7.90000010  56.88999939
C     7.72000027   7.59000015  55.52000046
C     8.73999977   7.50999975  54.59000015
C    10.05000019   7.83999968  55.01999664
C    14.14000034   8.36999989  55.86999893
C    14.88000011   8.18000031  54.66999817
C    16.26000023   8.05999947  54.65000153
C     6.34000015   7.14999962  55.08999634
H     5.89122343   7.81960297  54.35628510
H    10.95999908   7.40000010  53.09000015
H    11.97000027   8.56000042  57.72999573
H     9.53999996   8.23999977  58.31999969
H     7.07999992   7.86999989  57.60000229
H     8.48999977   7.26999998  53.55999756
H    16.88999939   7.83999968  53.79000092
H     5.71000004   7.02000046  55.97999954
H     6.61999989   6.19999981  54.61000061
S    14.02999973   5.86999989  50.56000137
C    11.38000011   5.00999975  50.98999786
C    12.71000004   4.99000025  51.35000229
C    13.19000053   4.23000002  52.45999908
C    12.30000019   3.67000008  53.36000061
C    10.92000008   3.88999987  53.13999939
C     9.90999985   3.42999983  54.02999878
C     8.57999992   3.48000002  53.69999695
C     8.13000011   4.07000017  52.49000168
C     9.06000042   4.55999994  51.59999847
C    10.44000053   4.50000000  51.91999817
C    14.60999966   4.42000008  52.69000244
C    15.19000053   5.36000013  51.79000092
C    16.54000092   5.68000031  51.81999969
C     6.65999985   4.35999966  52.28000259
H     6.24803638   3.96934485  51.34953308
H    11.10999966   5.28999996  49.97000122
H    12.69999981   3.37000012  54.31999969
H    10.21999931   3.00000000  54.98000336
H     7.92999983   3.14000010  54.50000000
H     8.76999950   5.21000004  50.77999878
H    17.04000092   6.10000038  50.94999695
H     6.12999964   3.97000027  53.15000153
H     6.51999998   5.45000029  52.27000427
S    17.88999939   3.95000005  55.13000107
C    20.55999947   4.44999981  54.47999954
C    19.22999954   4.57999992  54.15000153
C    18.77000046   5.23000002  52.95999908
C    19.71999931   5.55999994  52.01000214
C    21.11000061   5.50000000  52.28000259
C    22.13000107   5.91000032  51.36000061
C    23.45999908   5.77000046  51.66999817
C    23.81999969   5.13000011  52.88999939
C    22.88000107   4.72000027  53.80000305
C    21.50000000   4.94999981  53.54999924
C    17.30999947   5.23999977  52.90000153
C    16.70999908   4.41000032  53.88999939
C    15.39000034   4.00000000  53.76999664
C    25.27000046   4.73000002  53.04000092
H    25.68296432   5.05752373  53.99409103
H    20.81999969   3.98999977  55.43000031
H    19.37000084   5.89999962  51.04000092
H    21.80999947   6.25999975  50.38999939
H    24.15999985   5.92999983  50.86000061
H    23.21000099   4.11000013  54.64000320
H    14.96000099   3.42000008  54.59000015
H    25.88999939   5.23999977  52.29000092
H    25.38999939   3.65000010  52.87000275
