96

S    17.04000092   8.94999981  58.25000000
C    19.67000008   9.28999996  57.44999695
C    18.40999985   8.84000015  57.12999725
C    18.02999878   8.34000015  55.84000015
C    19.03000069   8.18000031  54.91000366
C    20.35000038   8.61999989  55.18000031
C    21.38000107   8.51000023  54.20999908
C    22.67000008   8.84000015  54.58000183
C    22.98999977   9.35999966  55.86000061
C    22.01999855   9.52000046  56.83000183
C    20.69000053   9.15000057  56.47999573
C    16.57999992   8.27000046  55.70999908
C    15.92000008   8.64999962  56.90999985
C    14.52999973   8.75000000  56.95999908
C    24.40999985   9.70000076  56.23000336
H    24.74408722   9.15266418  57.11142731
H    19.81999969   9.78999996  58.40000153
H    18.81999969   7.75000000  53.93000031
H    21.24000168   8.14999962  53.20000076
H    23.46999931   8.67999935  53.86000061
H    22.27000046   9.98000050  57.77999878
H    14.04000092   8.90999985  57.91999817
H    24.97999954   9.52999973  55.31000137
H    24.46000099  10.78999996  56.38000107
S    13.35999966   7.16000032  53.53000259
C    10.65999985   7.02000046  54.20999908
C    11.92999935   7.40999985  54.55999756
C    12.30999947   8.10999966  55.75000000
C    11.26000023   8.22000027  56.65000153
C     9.90999985   8.00000000  56.29000092
C     8.82000065   8.17000008  57.19999695
C     7.53000021   7.82999992  56.90999985
C     7.20000029   7.39000034  55.59999847
C     8.22000027   7.13000011  54.69999695
C     9.56999969   7.44000006  55.00999832
C    13.73000050   8.38999939  55.86999893
C    14.42000008   7.94000053  54.72000122
C    15.80999947   7.90000010  54.59999847
C     5.78999996   6.93000031  55.30000305
H     5.33437300   7.36426926  54.41010666
H    10.43000031   6.38999987  53.34999847
H    11.57999992   8.51000023  57.63999939
H     8.98999977   8.52000046  58.22000122
H     6.84999990   7.69999981  57.74000168
H     7.94000053   6.60000038  53.80000305
H    16.17000008   7.68000031  53.60000229
H     5.12000036   7.23999977  56.11000061
H     5.86000013   5.84000015  55.26000214
S    14.13000011   5.45000029  50.43000031
C    11.42000008   5.05000019  51.10000229
C    12.75000000   4.77999973  51.32999802
C    13.17000008   4.09999990  52.51999664
C    12.20999908   3.55999994  53.36000061
C    10.85000038   3.61999989  53.00000000
C     9.92999935   3.05999994  53.94000244
C     8.61999989   3.35999990  53.63999939
C     8.15999985   4.19000006  52.58999634
C     9.04999924   4.76000023  51.70999908
C    10.43000031   4.44999981  51.90000153
C    14.60000038   4.23000002  52.75000000
C    15.24000072   4.97000027  51.72999954
C    16.54000092   5.44000053  51.88999939
C     6.69000053   4.48000002  52.39999771
H     6.21411085   3.98280191  51.55476379
H    11.13999939   5.80999947  50.35999680
H    12.53000069   3.00999999  54.25000000
H    10.26000023   2.40999985  54.75000000
H     7.90000010   2.94999981  54.34999847
H     8.69000053   5.33999968  50.86000061
H    16.95999908   6.01000023  51.05999756
H     6.15999985   4.28000021  53.34000015
H     6.53999996   5.53999996  52.15999985
S    17.79999924   3.73000002  55.24000168
C    20.50000000   4.21999979  54.59000015
C    19.15999985   4.42999983  54.34999847
C    18.73999977   5.05999994  53.13000107
C    19.69000053   5.58000040  52.27000427
C    21.07999992   5.44000053  52.54000092
C    22.03000069   6.01999998  51.65999985
C    23.35000038   5.92000008  52.04000092
C    23.78999901   5.35000038  53.27000046
C    22.84000015   4.88999987  54.15000153
C    21.45999908   4.92000008  53.81999969
C    17.28999901   5.00000000  52.97999954
C    16.63999939   4.30999994  54.02999878
C    15.31999969   3.88999987  53.89999771
C    25.22999954   5.00999975  53.56999969
H    25.61297417   5.32205439  54.54162216
H    20.85000038   3.63000011  55.43000031
H    19.31999969   6.12999964  51.40999603
H    21.73000145   6.71999979  50.87999725
H    24.09000015   6.46000004  51.46999741
H    23.22999954   4.30000019  54.98000336
H    14.75999928   3.33999991  54.65999985
H    25.88999939   5.44000053  52.81000137
H    25.38999939   3.93000007  53.52000427
