96

S    17.21999931   8.64999962  58.18000031
C    19.95000076   8.73000050  57.44999695
C    18.63999939   8.43000031  57.14000320
C    18.27000046   7.94000053  55.84000015
C    19.23999977   7.76999998  54.86999893
C    20.59000015   8.03999996  55.15999603
C    21.60000038   7.90000010  54.16999817
C    22.92000008   8.03999996  54.50000000
C    23.29999924   8.42000008  55.81999969
C    22.34000015   8.63000011  56.79000092
C    20.95000076   8.50000000  56.47999573
C    16.81999969   7.85000038  55.70000076
C    16.10000038   8.30999947  56.84000015
C    14.72000027   8.42000008  56.91999817
C    24.75000000   8.69999981  56.13999939
H    25.16939545   8.01759243  56.87927246
H    20.34000015   9.19999981  58.34999847
H    18.98999977   7.50999975  53.85000229
H    21.25999832   7.59000015  53.18000031
H    23.57999992   7.88999987  53.64999771
H    22.60999870   8.78000069  57.83000183
H    14.28999996   8.89999962  57.78999710
H    25.38999939   8.60000038  55.26000214
H    24.93000031   9.75000000  56.39999771
S    13.60999966   7.13999987  53.31999969
C    10.86999989   7.37999964  53.95000076
C    12.18999958   7.50999975  54.31999969
C    12.51999950   8.05999947  55.59999847
C    11.46999931   8.36000061  56.45000076
C    10.10000038   8.14000034  56.17000198
C     9.01000023   8.25000000  57.08000183
C     7.72000027   8.02999973  56.63999939
C     7.44000006   7.55999994  55.33000183
C     8.48999977   7.27999973  54.47999954
C     9.81000042   7.67000008  54.84000397
C    13.94999981   8.02999973  55.81999969
C    14.67000008   7.55000019  54.68999863
C    16.04999924   7.50000000  54.59000015
C     6.02999973   7.07000017  55.10000229
H     5.51181269   7.61658096  54.31207275
H    10.57999992   6.91999960  53.01000214
H    11.72000027   8.52999973  57.50000000
H     9.19000053   8.53999996  58.11000061
H     6.90000010   8.19000053  57.32999802
H     8.38999939   6.67999983  53.57999802
H    16.50000000   7.22000027  53.63999939
H     5.40000010   7.05999947  55.98999786
H     6.06999969   6.05000019  54.72000122
S    13.82999992   5.07000017  50.38000107
C    11.17000008   4.65999985  51.16000366
C    12.51000023   4.44000006  51.38999939
C    12.96000004   3.75000000  52.56000137
C    11.97999954   3.38999987  53.47000122
C    10.59000015   3.60000014  53.31999969
C     9.53999996   3.17000008  54.18000031
C     8.19000053   3.28000021  53.94000244
C     7.86999989   3.98999977  52.75000000
C     8.82000065   4.59999990  51.95999908
C    10.19000053   4.26000023  52.09999847
C    14.40999985   3.88000011  52.64999771
C    15.03999901   4.53000021  51.56000137
C    16.39000130   4.86000013  51.59000015
C     6.42000008   4.25000000  52.39999771
H     6.09411335   3.82493019  51.45067596
H    10.80000019   5.13999987  50.26000214
H    12.28999996   2.73999977  54.29000092
H     9.94000053   2.66999984  55.06000137
H     7.49000025   2.89999986  54.66999817
H     8.57999992   5.26999998  51.14999771
H    16.90000153   5.32000017  50.75000000
H     5.82000017   3.91000009  53.25000000
H     6.25999975   5.32999992  52.36000061
S    17.78000069   3.38000011  55.01999664
C    20.45999908   3.94000006  54.31999969
C    19.11000061   4.07999992  54.08000183
C    18.63000107   4.61999989  52.84000015
C    19.51000023   5.14999962  51.90999985
C    20.88999939   5.13999987  52.23999786
C    21.87999916   5.46999979  51.26999664
C    23.22000122   5.47999954  51.56999969
C    23.68999863   5.03999996  52.84000015
C    22.79000092   4.48999977  53.72000122
C    21.40000153   4.51999998  53.43999863
C    17.20000076   4.42999983  52.64999771
C    16.59000015   3.81999993  53.77999878
C    15.21999931   3.58000016  53.75000000
C    25.09000015   5.35000038  53.34000015
H    25.39485168   4.71193790  54.16948318
H    20.84000015   3.30000019  55.11000061
H    19.20999908   5.73999977  51.05999756
H    21.54000092   5.75000000  50.27999878
H    23.87000084   5.92000008  50.83000183
H    23.15000153   4.15999985  54.68999863
H    14.73999977   3.14000010  54.61000061
H    25.12000084   6.40999985  53.61000061
H    25.76999855   5.38999987  52.49000168
