96

S    17.09000015   8.85999966  58.37999725
C    19.78999901   8.97000027  57.69000244
C    18.51000023   8.64000034  57.32999802
C    18.22000122   8.23999977  55.98999786
C    19.23999977   8.07999992  55.06999969
C    20.58000183   8.46000004  55.35999680
C    21.70999908   8.46000004  54.48999786
C    22.93000031   9.02000046  54.79999924
C    23.15999985   9.52000046  56.11000061
C    22.09000015   9.44000053  56.97999954
C    20.81000137   8.89999962  56.70999908
C    16.77999878   8.10000038  55.83000183
C    16.05999947   8.38999939  57.01000214
C    14.68000031   8.52000046  56.97999954
C    24.54999924   9.77000046  56.65000153
H    25.01947403   8.87373066  57.05545807
H    19.90999985   9.50000000  58.63999939
H    19.11000061   7.46999979  54.18000031
H    21.65999985   7.92000008  53.54999924
H    23.75000000   8.71999931  54.15999985
H    22.27999878   9.85000038  57.97000122
H    14.19000053   8.82000065  57.90000153
H    25.20999908  10.25000000  55.90999985
H    24.61999893  10.50000000  57.45999908
S    13.61999989   7.44000006  53.31999969
C    10.86999989   7.42000008  53.88999939
C    12.15999985   7.69999981  54.27999878
C    12.51000023   8.07999992  55.61999893
C    11.49000072   8.26000023  56.53999710
C    10.17000008   7.88999987  56.18999863
C     9.15000057   7.75000000  57.16999817
C     7.90999985   7.23999977  56.88000107
C     7.59000015   6.98000002  55.52000046
C     8.51000023   7.09000015  54.50000000
C     9.84000015   7.42999983  54.86000061
C    13.94999981   8.17000008  55.83000183
C    14.70000076   7.75000000  54.69999695
C    16.07999992   7.67000008  54.68999863
C     6.24000025   6.32000017  55.35999680
H     5.64835024   6.91164923  54.66142654
H    10.60999966   6.94000006  52.95000076
H    11.69999981   8.31999969  57.60000229
H     9.39999962   8.01999950  58.18999863
H     7.21000004   7.07000017  57.69000244
H     8.23000050   6.71999979  53.52000427
H    16.52000046   7.40000010  53.73000336
H     5.86999989   6.34999990  56.39999771
H     6.28999996   5.26000023  55.06999969
S    13.52000046   5.58000040  50.35999680
C    10.85000038   5.13000011  51.10000229
C    12.18000031   4.88999987  51.30000305
C    12.65999985   4.15000010  52.43000031
C    11.77000046   3.60000014  53.34000015
C    10.40999985   4.00999975  53.26000214
C     9.44000053   3.35999990  54.08000183
C     8.10000038   3.31999993  53.80000305
C     7.64999962   3.89999986  52.57999802
C     8.53999996   4.59999990  51.79000092
C     9.92999935   4.63999987  52.05999756
C    14.11000061   4.19999981  52.58999634
C    14.68999958   4.86999989  51.47999573
C    16.03999901   5.21000004  51.45000076
C     6.32000017   3.45999980  52.02999878
H     5.83786678   4.26119232  51.46987534
H    10.52000046   5.75999975  50.27000046
H    12.11999989   2.98000002  54.15000153
H     9.77000046   2.75000000  54.92000198
H     7.50000000   2.53999996  54.27000046
H     8.27000046   4.94000006  50.79000092
H    16.39999962   5.84000015  50.63999939
H     6.43000031   2.59999990  51.36000061
H     5.68000031   3.19000006  52.88000107
S    17.38000107   3.79999995  54.93000031
C    20.05000114   4.51999998  54.29999924
C    18.70000076   4.61000013  54.05000305
C    18.22999954   5.14999962  52.81000137
C    19.17000008   5.68000031  51.93999863
C    20.55999947   5.65000010  52.21000290
C    21.54999924   5.93999958  51.23000336
C    22.88000107   5.71000004  51.49000168
C    23.34000015   5.15999985  52.71999741
C    22.39999962   4.72000027  53.62999725
C    21.02999878   5.03999996  53.41999817
C    16.80999947   4.92999983  52.57999802
C    16.21999931   4.23999977  53.67000198
C    14.88000011   3.86000013  53.69999695
C    24.82000160   4.88999987  52.85999680
H    25.16930771   5.05396128  53.87940979
H    20.40999985   3.88999987  55.11000061
H    18.67000008   5.96000004  51.00999832
H    21.25000000   6.48000002  50.34000015
H    23.64000130   5.92999983  50.75000000
H    22.57999802   4.00999975  54.41999817
H    14.47999954   3.31999993  54.55999756
H    25.30999947   5.58000040  52.15999985
H    25.10000038   3.84999990  52.64999771
