96

S    16.63999939   8.89999962  58.06999969
C    19.31999969   8.57999992  57.56000137
C    18.02999878   8.36000061  57.11999893
C    17.75000000   7.88999987  55.79999924
C    18.79999924   7.57000017  54.95999908
C    20.13999939   7.82999992  55.35999680
C    21.21000099   7.76999998  54.41999817
C    22.46999931   8.17000008  54.77000427
C    22.72999954   8.75000000  56.04999924
C    21.68999863   8.89999962  56.93999863
C    20.39999962   8.36999989  56.65999985
C    16.31000137   7.88000011  55.61000061
C    15.59999943   8.39999962  56.72000122
C    14.22999954   8.60999966  56.77999878
C    24.09000015   9.35000038  56.29000092
H    24.58080482   8.78095150  57.07955551
H    19.45000076   9.11999989  58.48999786
H    18.63999939   7.03000021  54.02999878
H    21.00000000   7.48000050  53.39000320
H    23.31999969   8.10000038  54.09000015
H    21.97000122   9.43000031  57.84999847
H    13.71000099   8.78999996  57.70999908
H    24.75000000   9.39000034  55.40999985
H    23.95999908  10.34999943  56.72000122
S    13.19000053   7.17000008  53.18000031
C    10.51000023   7.00000000  53.95000076
C    11.78999996   7.40999985  54.23999786
C    12.10000038   7.94000053  55.54000092
C    11.07999992   8.10999966  56.45000076
C     9.73999977   7.73000002  56.18999863
C     8.67999935   7.85000038  57.11999893
C     7.40999985   7.42000008  56.77999878
C     7.11000013   6.96000004  55.47999954
C     8.14999962   6.74000025  54.59000015
C     9.48000050   7.09999990  54.92000198
C    13.53999996   8.14000034  55.65000153
C    14.25000000   7.73000002  54.48999786
C    15.62000084   7.51999950  54.45000076
C     5.78000021   6.30999994  55.19000244
H     5.41633224   6.58096838  54.19882965
H    10.24000072   6.63000011  52.97000122
H    11.31999969   8.36999989  57.48000336
H     8.90999985   8.23999977  58.11000061
H     6.57999992   7.32999992  57.47000122
H     7.82999992   6.35999966  53.62999725
H    16.18000031   7.14999962  53.60000229
H     5.12000036   6.63000011  56.00000000
H     5.82999992   5.21000004  55.24000168
S    17.45000076   9.48000050  52.09000015
C    20.17000008   9.36999989  51.51000214
C    18.89000130   9.01000023  51.16000366
C    18.53000069   8.45000076  49.88999939
C    19.51000023   8.30999947  48.93000031
C    20.82999992   8.73000050  49.25000000
C    21.84999847   8.48999977  48.29000092
C    23.15000153   8.86999989  48.54000092
C    23.45000076   9.63999939  49.68999863
C    22.46999931   9.89999962  50.61999893
C    21.14999962   9.38000011  50.48999786
C    17.09000015   8.34000015  49.72999954
C    16.36999893   8.89999962  50.80999756
C    14.98000050   9.01000023  50.90000153
C    24.86000061  10.05000019  50.04000092
H    25.29554367   9.53591537  50.89680862
H    20.39999962   9.76000023  52.49000168
H    19.25000000   7.86000013  47.97999954
H    21.59000015   8.03999996  47.32999802
H    23.97999954   8.59000015  47.88999939
H    22.78000069  10.32999992  51.56999969
H    14.52999973   9.46000004  51.79000092
H    25.55999947   9.92999935  49.20000076
H    24.86999893  11.13000011  50.25000000
S    13.82999992   7.23000002  47.51999664
C    11.16000080   7.22000027  48.15000153
C    12.42000008   7.62000036  48.53000259
C    12.77999973   8.18000031  49.79000092
C    11.67000008   8.46000004  50.56999969
C    10.34000015   8.10999966  50.25000000
C     9.22000027   8.38999939  51.09000397
C     7.95000029   8.02999973  50.72000122
C     7.71000004   7.37999964  49.47999954
C     8.73000050   7.14999962  48.59000397
C    10.06000042   7.44000006  49.01000214
C    14.19999981   8.46000004  49.87999725
C    14.88999939   7.94000053  48.75000000
C    16.28000069   7.92999983  48.64999771
C     6.28999996   7.02000046  49.09999847
H     5.79067755   7.72618484  48.43661118
H    11.02000046   6.77999973  47.15999985
H    11.77999973   9.07999992  51.45999908
H     9.42000008   8.80999947  52.06999969
H     7.11000013   8.17000008  51.39999771
H     8.48999977   6.72999954  47.61000061
H    16.70999908   7.42000008  47.80000305
H     5.69000006   6.84000015  50.00000000
H     6.35999966   6.11000013  48.50000000
