96

S    17.12000084   8.80000019  58.43999863
C    19.84000015   8.76999950  57.71999741
C    18.52000046   8.55000019  57.37999725
C    18.20999908   8.07999992  56.06999969
C    19.20999908   7.86999989  55.13999939
C    20.56999969   8.06999969  55.47999954
C    21.61999893   7.88999987  54.52999878
C    22.93999863   8.10000038  54.87999725
C    23.23999786   8.69000053  56.13999939
C    22.25000000   8.89000034  57.06999969
C    20.88999939   8.56999969  56.79000092
C    16.76000023   7.99000025  55.93000031
C    16.04999924   8.34000015  57.09999847
C    14.68000031   8.56000042  57.12999725
C    24.67000008   9.11000061  56.39999771
H    25.17339325   8.49316692  57.14445114
H    20.12000084   9.01000023  58.74000168
H    18.96999931   7.71000004  54.09999847
H    21.27000046   7.69999981  53.52000427
H    23.74000168   7.97999954  54.16999817
H    22.52000046   9.38000011  58.00000000
H    14.25000000   8.86999989  58.08000183
H    25.17000008   9.11999989  55.41999817
H    24.53000069  10.18000031  56.56000137
S    13.50000000   7.63000011  53.43000031
C    10.80999947   7.67000008  54.09999847
C    12.10000038   7.95000029  54.47000122
C    12.50000000   8.23000050  55.81999969
C    11.49000072   8.38999939  56.75000000
C    10.14000034   8.14000034  56.39999771
C     9.02999973   8.27000046  57.29000092
C     7.75000000   7.85000038  57.02999878
C     7.53999996   7.11999989  55.83000183
C     8.53999996   7.03000021  54.88999939
C     9.81000042   7.63000011  55.10000229
C    13.94999981   8.19999981  55.98999786
C    14.61999989   7.83999968  54.79000092
C    16.00000000   7.63999987  54.80999756
C     6.11000013   6.77999973  55.45000076
H     5.76739502   7.52231073  54.72910309
H    10.60999966   7.11000013  53.18999863
H    11.73999977   8.63000011  57.77999878
H     9.27999973   8.78000069  58.20999908
H     6.94999981   8.01000023  57.75000000
H     8.34000015   6.48000002  53.96999741
H    16.57999992   7.48000050  53.90999603
H     5.46000004   6.78999996  56.32999802
H     5.91000032   5.80999947  54.98000336
S    17.13000107   9.21000004  52.14000320
C    19.88999939   9.25000000  51.55000305
C    18.59000015   9.03999996  51.13999939
C    18.27000046   8.85000038  49.75999832
C    19.31999969   8.76000023  48.86000061
C    20.66999817   8.93000031  49.22999954
C    21.67000008   9.00000000  48.22000122
C    22.98000145   9.13000011  48.61999893
C    23.26999855   9.44000053  49.97000122
C    22.29999924   9.50000000  50.94999695
C    20.94000053   9.25000000  50.61000061
C    16.84000015   8.78000069  49.52000046
C    16.10000038   9.02999973  50.70999908
C    14.70999908   9.09000015  50.73999786
C    24.69000053   9.80000019  50.35999680
H    25.18027306   8.98998642  50.90000916
H    20.10999870   9.73999977  52.50000000
H    19.13999939   8.60999966  47.80000305
H    21.42999840   8.75000000  47.18999863
H    23.68999863   9.01000023  47.81000137
H    22.56999969   9.52999973  52.00000000
H    14.11000061   9.27999973  51.62000275
H    25.23999977  10.15999985  49.47999954
H    24.77999878  10.64000034  51.04999924
S    13.66000080   8.15999985  47.05999756
C    10.98999977   7.72000027  47.88999939
C    12.25999928   8.19999981  48.13999939
C    12.61999989   8.69000053  49.43000031
C    11.63000011   8.78999996  50.38999939
C    10.26999950   8.47999954  50.18000031
C     9.15000057   8.59000015  51.04999924
C     7.88000011   8.14000034  50.76000214
C     7.59000015   7.71000004  49.43999863
C     8.64000034   7.62000036  48.56999969
C     9.98000050   7.99000025  48.85000229
C    14.06999969   8.80999947  49.52000046
C    14.81999969   8.50000000  48.36000061
C    16.21000099   8.38999939  48.33000183
C     6.21999979   7.17000008  49.06999969
H     5.74328995   7.79612732  48.31580353
H    10.80999947   7.32999992  46.88999939
H    11.85999966   9.15999985  51.38000107
H     9.30999947   8.93000031  52.08000183
H     7.17000008   8.06999969  51.58000183
H     8.42000008   7.31999969  47.54000092
H    16.75000000   8.14000034  47.42000198
H     5.53999996   6.96000004  49.89999771
H     6.38999987   6.21000004  48.57999802
