96

S    16.72000122   8.64000034  58.09999847
C    19.44000053   8.85999966  57.50999832
C    18.19000053   8.47000027  57.11000061
C    17.90999985   8.19000053  55.73999786
C    18.96000099   8.03999996  54.86000061
C    20.28000069   8.27999973  55.30000305
C    21.42000008   8.13000011  54.45000076
C    22.70000076   8.50000000  54.79999924
C    22.98999977   8.97000027  56.11000061
C    21.90999985   9.01000023  56.97000122
C    20.55999947   8.71999931  56.65000153
C    16.46999931   8.19000053  55.48999786
C    15.70000076   8.39999962  56.65999985
C    14.32999992   8.60999966  56.70000076
C    24.34000015   9.53999996  56.47999573
H    24.83846855   8.90623188  57.21345901
H    19.67000008   9.19999981  58.53000259
H    18.70000076   7.88000011  53.81000137
H    21.12999916   7.73999977  53.47999954
H    23.52000046   8.43000031  54.09999847
H    22.07999992   9.39999962  57.97000122
H    13.86000061   8.82999992  57.64999771
H    25.03000069   9.61000061  55.63000107
H    24.23999977  10.54999924  56.88999939
S    13.27000046   7.48000050  53.06999969
C    10.59000015   7.28999996  53.70999908
C    11.82999992   7.75000000  54.06999969
C    12.17000008   8.27000046  55.35999680
C    11.16000080   8.47999954  56.29000092
C     9.85000038   8.05999947  55.94999695
C     8.80000019   8.19999981  56.90999985
C     7.55000019   7.67000008  56.75000000
C     7.23000002   7.16000032  55.45999908
C     8.23000050   7.00000000  54.52000046
C     9.56999969   7.44000006  54.68999863
C    13.60999966   8.31999969  55.54000092
C    14.35999966   7.96000004  54.38999939
C    15.75000000   7.99000025  54.31000137
C     5.82999992   6.69000053  55.13999939
H     5.35359383   7.25173283  54.33650970
H    10.40999985   6.65999985  52.83000183
H    11.44000053   8.57999992  57.32999802
H     9.04999924   8.78000069  57.78999710
H     6.80000019   7.79999971  57.51999664
H     7.97999954   6.39999962  53.64999771
H    16.21000099   7.59000015  53.40999985
H     5.12000036   6.71000004  55.97999954
H     5.88999987   5.64000034  54.84000397
S    13.88000011   5.40999985  50.43000031
C    11.14999962   4.69999981  50.79000092
C    12.46000099   4.67999983  51.20999908
C    12.81999969   4.09000015  52.45999908
C    11.79999924   3.53999996  53.20999908
C    10.42000008   3.70000005  52.93000031
C     9.36999989   3.30000019  53.81000137
C     8.09000015   3.61000013  53.43999863
C     7.83999968   4.23000002  52.18999863
C     8.78000069   4.59000015  51.25000000
C    10.11000061   4.28999996  51.65999985
C    14.26000023   4.09000015  52.67000198
C    14.98000050   4.82999992  51.70000076
C    16.31000137   5.23999977  51.77000046
C     6.44000006   4.69999981  51.88000107
H     5.95662832   4.09578562  51.11229324
H    10.90999985   5.40999985  50.00000000
H    12.13999939   3.21000004  54.19000244
H     9.53999996   2.77999997  54.75999832
H     7.36000013   3.51999998  54.23999786
H     8.51000023   5.14999962  50.34999847
H    16.70999908   5.73999977  50.90000153
H     5.92999983   4.63999987  52.84000015
H     6.51000023   5.78999996  51.73999786
S    17.51000023   3.60000014  55.12000275
C    20.22000122   4.30000019  54.71000290
C    18.89000130   4.40000010  54.34000015
C    18.47999954   5.03000021  53.13000107
C    19.42000008   5.60999966  52.29000092
C    20.79000092   5.44000053  52.58999634
C    21.81999969   5.78999996  51.68000031
C    23.12999916   5.66999960  52.09000015
C    23.48999977   5.00000000  53.27999878
C    22.53999901   4.67999983  54.22999954
C    21.18000031   4.90999985  53.87000275
C    17.05999947   4.85000038  52.88999939
C    16.36999893   4.07000017  53.85000229
C    15.03000069   3.71000004  53.77999878
C    24.93999863   4.65000010  53.53000259
H    25.39797783   5.25825119  54.30999374
H    20.48000145   3.56999993  55.47000122
H    19.26000023   6.05000019  51.31000137
H    21.47999954   6.34999990  50.80999756
H    24.03000069   5.96000004  51.56999969
H    22.93999863   4.17000008  55.10000229
H    14.53999996   3.07000017  54.51000214
H    25.52000046   4.80999994  52.61000061
H    25.02000046   3.56999993  53.73000336
