96

S    16.77999878   8.56000042  58.46000290
C    19.47000122   8.65999985  57.74000168
C    18.17000008   8.40999985  57.36999893
C    17.80999947   8.03999996  56.04000092
C    18.78000069   7.92999983  55.06000137
C    20.13000107   8.15999985  55.43000031
C    21.21999931   8.03999996  54.52999878
C    22.52000046   8.28999996  54.92000198
C    22.81999969   8.88000011  56.18000031
C    21.81999969   8.93999958  57.12999725
C    20.48999977   8.59000015  56.76000214
C    16.36999893   7.86999989  55.90999985
C    15.69000053   8.19000053  57.11000061
C    14.29999924   8.27000046  57.14000320
C    24.26000214   9.22999954  56.44000244
H    24.72847176   8.55568790  57.15689850
H    19.73999977   8.89999962  58.76999664
H    18.52000046   7.65999985  54.03999710
H    21.02999878   7.57999992  53.56999969
H    23.29000092   8.14000034  54.18000031
H    21.96000099   9.13000011  58.18999863
H    13.78999901   8.61999989  58.02999878
H    24.79999924   9.13000011  55.47999954
H    24.28999901  10.29000092  56.72999954
S    13.15999985   7.11000013  53.53000259
C    10.44000053   7.55999994  54.06999969
C    11.76000023   7.76000023  54.40000153
C    12.13000107   8.10999966  55.73999786
C    11.10999966   8.23999977  56.66999817
C     9.73999977   8.03999996  56.36000061
C     8.69999981   8.14000034  57.31999969
C     7.36000013   7.97999954  57.04999924
C     6.98999977   7.69000006  55.70999908
C     8.00000000   7.40000010  54.81999969
C     9.38000011   7.68000031  55.00999832
C    13.55999947   8.01999950  55.97999954
C    14.26000023   7.53000021  54.85000229
C    15.65000057   7.50000000  54.77000427
C     5.55000019   7.28999996  55.50000000
H     5.19369984   7.63917398  54.53086090
H    10.14999962   7.11000013  53.13000107
H    11.30000019   8.25000000  57.74000168
H     8.98999977   8.36999989  58.34999847
H     6.65999985   7.96000004  57.88000107
H     7.71000004   6.89000034  53.89999771
H    16.22999954   7.23000002  53.88999939
H     5.03000021   7.75000000  56.35000229
H     5.52999973   6.21999979  55.73999786
S    13.31999969   5.18000031  50.61000061
C    10.73999977   4.84000015  51.44000244
C    12.05000019   4.46000004  51.60999680
C    12.55000019   3.71000004  52.71999741
C    11.59999943   3.19999981  53.59000397
C    10.21999931   3.48000002  53.44999695
C     9.25000000   3.10999990  54.41999817
C     7.92000008   3.37000012  54.20999908
C     7.48000050   4.00999975  53.02000046
C     8.39999962   4.42999983  52.08000183
C     9.78999996   4.26999998  52.32999802
C    14.00000000   3.84999990  52.77000046
C    14.56999969   4.57999992  51.70999908
C    15.90000057   5.00000000  51.77999878
C     5.98000002   4.09000015  52.85999680
H     5.69582605   4.04737377  51.80855560
H    10.39000034   5.46999979  50.61999893
H    12.00000000   2.86000013  54.54999924
H     9.56999969   2.50000000  55.26000214
H     7.23000002   3.03999996  54.98000336
H     8.10000038   5.03999996  51.23000336
H    16.38000107   5.69999981  51.10000229
H     5.51000023   3.21000004  53.30999756
H     5.50000000   4.94999981  53.34999847
S    17.25000000   3.38999987  55.20999908
C    19.90999985   3.70000005  54.36000061
C    18.59000015   4.03999996  54.22999954
C    18.12000084   4.75000000  53.08000183
C    19.04000092   5.29999971  52.19999695
C    20.42000008   5.03999996  52.42000198
C    21.42000008   5.64000034  51.59999847
C    22.75000000   5.36999989  51.77999878
C    23.25000000   4.53000021  52.81000137
C    22.29999924   4.02999973  53.67000198
C    20.89999962   4.21000004  53.47999954
C    16.69000053   4.57999992  52.85999680
C    16.10999870   3.86000013  53.92000198
C    14.78999996   3.44000006  53.86000061
C    24.71999931   4.28999996  53.04000092
H    25.08269882   4.78070974  53.94319153
H    20.22999954   3.16000009  55.25000000
H    18.65999985   5.82999992  51.32999802
H    21.11999893   6.19000006  50.70999908
H    23.51000023   5.91000032  51.22000122
H    22.60000038   3.45000005  54.54000092
H    14.44000053   2.80999994  54.66999817
H    25.29999924   4.63000011  52.16999817
H    24.86000061   3.21000004  52.88999939
