96

S    17.25000000   8.43999958  58.50999832
C    19.84000015   8.90999985  57.63000107
C    18.57999992   8.46000004  57.34000397
C    18.27999878   7.90000010  56.04999924
C    19.31999969   7.76999998  55.14999771
C    20.62999916   8.23999977  55.40000153
C    21.68999863   8.10000038  54.47000122
C    22.98999977   8.43000031  54.77000427
C    23.22999954   9.10000038  56.00000000
C    22.20999908   9.30999947  56.90999985
C    20.88000107   8.86999989  56.66999817
C    16.84000015   7.69000006  55.97000122
C    16.15999985   8.00000000  57.16999817
C    14.77000046   8.05000019  57.22999954
C    24.61000061   9.59999943  56.38000107
H    25.07298470   8.97319031  57.14213943
H    20.07999802   9.31999969  58.61000061
H    19.06999969   7.22000027  54.23999786
H    21.45999908   7.75000000  53.47000122
H    23.82999802   8.19000053  54.13999939
H    22.44999886   9.76000023  57.87000275
H    14.14000034   8.25000000  58.08000183
H    25.23999977   9.53999996  55.48999786
H    24.63000107  10.64000034  56.72999954
S    13.64999962   7.05999947  53.54000092
C    10.95999908   6.89000034  54.29999924
C    12.25000000   7.26000023  54.61000061
C    12.60000038   7.76999998  55.90000153
C    11.63000011   7.83999968  56.86999893
C    10.27999973   7.49000025  56.59999847
C     9.26999950   7.46999979  57.60000229
C     8.01999950   7.03999996  57.23999786
C     7.63000011   6.57999992  55.94999695
C     8.64000034   6.54999971  55.00999832
C     9.94000053   7.05999947  55.27000046
C    14.04999924   7.76000023  56.05999756
C    14.75000000   7.40999985  54.88999939
C    16.13999939   7.40000010  54.79000092
C     6.24000025   6.07999992  55.61999893
H     5.65701103   6.85494900  55.12232590
H    10.80999947   6.32000017  53.39000320
H    11.98999977   8.14000034  57.84999847
H     9.48999977   8.00000000  58.53000259
H     7.17999983   7.23999977  57.88999939
H     8.53999996   6.11000013  54.02000046
H    16.65999985   7.07999992  53.88999939
H     5.72000027   5.78999996  56.55000305
H     6.19999981   5.21000004  54.97000122
S    17.35999870   8.78999996  52.15999985
C    19.92000008   9.13000011  51.31999969
C    18.71000099   8.52999973  51.04999924
C    18.36000061   8.17000008  49.71000290
C    19.37000084   8.31999969  48.76999664
C    20.71000099   8.64999962  49.03999710
C    21.83000183   8.67999935  48.15000153
C    23.09999847   8.94999981  48.59000397
C    23.35000038   9.36999989  49.92000198
C    22.27999878   9.51000023  50.77999878
C    20.96999931   9.15000057  50.35999680
C    16.90999985   8.17000008  49.59999847
C    16.25000000   8.52999973  50.79999924
C    14.86999989   8.61999989  50.86999893
C    24.76000023   9.67000008  50.37000275
H    25.16537094   9.03705311  51.15940475
H    20.17999840   9.52000046  52.29999924
H    19.14999962   8.15999985  47.71999741
H    21.61999893   8.32999992  47.14000320
H    23.92000008   8.67999935  47.93000031
H    22.29000092   9.72000027  51.84999847
H    14.52999973   8.94999981  51.84999847
H    25.48000145   9.63000011  49.54999924
H    24.77999878  10.70000076  50.76000214
S    13.52000046   7.67000008  47.25000000
C    10.80999947   7.63999987  48.06999969
C    12.13999939   7.86000013  48.34999847
C    12.56999969   8.30000019  49.64000320
C    11.63000011   8.27999973  50.65999985
C    10.26999950   7.97999954  50.41999817
C     9.32999992   7.88999987  51.47999573
C     7.99000025   7.67000008  51.25000000
C     7.55999994   7.40000010  49.93000031
C     8.43000031   7.46999979  48.87000275
C     9.82999992   7.67000008  49.09000015
C    14.01999950   8.43999958  49.77000427
C    14.65999985   8.05999947  48.55999756
C    16.03999901   8.07999992  48.50000000
C     6.09000015   7.09999990  49.68000031
H     5.70010567   7.80180979  48.94274521
H    10.44999981   7.34000015  47.09000015
H    11.87000084   8.71000004  51.63000107
H     9.63000011   8.19999981  52.48000336
H     7.21000004   7.69000006  52.01000214
H     8.18000031   7.34000015  47.81999969
H    16.48999977   7.83999968  47.54000092
H     5.51999998   7.17000008  50.59999847
H     6.02999973   6.01000023  49.52999878
