96

S    16.98999977   8.86999989  58.20000076
C    19.62000084   9.06999969  57.43000031
C    18.38000107   8.56000042  57.12999725
C    17.98999977   7.97999954  55.87999725
C    18.98999977   7.81000042  54.93999863
C    20.29999924   8.25000000  55.20000076
C    21.40999985   7.88999987  54.38000107
C    22.70999908   8.21000004  54.68000031
C    23.00000000   8.82999992  55.91999817
C    21.98999786   9.15999985  56.79999924
C    20.63999939   8.86999989  56.45999908
C    16.54000092   7.90000010  55.73999786
C    15.88999939   8.46000004  56.86000061
C    14.51000023   8.53999996  56.95000076
C    24.40000153   9.17000008  56.37000275
H    24.88423729   8.41515636  56.98954010
H    19.78000069   9.39000034  58.44999695
H    18.73999977   7.30000019  54.01000214
H    21.14999962   7.44999981  53.41999817
H    23.45999908   7.97999954  53.92000198
H    22.21999931   9.56999969  57.77000046
H    14.06999969   8.80999947  57.90999985
H    25.07999802   9.22999954  55.51000214
H    24.44000053  10.10000038  56.95999908
S    13.35000038   7.32999992  53.30999756
C    10.70000076   7.07000017  54.13000107
C    11.97000027   7.53999996  54.40000153
C    12.32999992   8.09000015  55.66999817
C    11.31999969   8.23000050  56.59999847
C     9.96999931   7.88999987  56.32999802
C     8.97999954   8.19000053  57.30999756
C     7.69999981   7.75000000  57.04999924
C     7.34000015   7.11999989  55.83000183
C     8.30999947   6.88000011  54.88999939
C     9.67000008   7.23999977  55.08999634
C    13.78000069   8.23000050  55.79999924
C    14.44000053   7.82999992  54.61000061
C    15.80999947   7.55999994  54.59000015
C     5.88000011   6.80000019  55.56000137
H     5.43122482   7.46960068  54.82628632
H    10.50000000   6.46000004  53.26000214
H    11.51000023   8.51000023  57.63000107
H     9.19999981   8.84000015  58.15000153
H     6.91999960   7.92999983  57.78999710
H     7.97999954   6.39999962  53.96999741
H    16.29999924   7.05999947  53.75999832
H     5.31000042   6.91999960  56.49000168
H     5.93999958   5.73000002  55.34000015
S    17.45000076   9.19999981  52.34000397
C    20.13999939   9.19000053  51.63999939
C    18.85000038   8.85000038  51.30000305
C    18.46999931   8.39999962  50.00000000
C    19.45000076   8.21000004  49.03999710
C    20.76000023   8.65999985  49.31999969
C    21.73999977   8.28999996  48.36000061
C    23.05999947   8.47000027  48.69999695
C    23.46999931   9.07999992  49.91000366
C    22.52000046   9.34000015  50.86999893
C    21.12999916   9.13000011  50.63000107
C    17.02999878   8.30999947  49.85000229
C    16.36000061   8.71000004  51.03000259
C    14.98000050   8.89000034  51.04000092
C    24.90999985   9.44000053  50.19000244
H    25.43585587   8.75780964  50.85797882
H    20.38000107   9.51000023  52.65999603
H    19.27000046   7.62000036  48.15000153
H    21.44000053   7.73000002  47.48000336
H    23.75999832   8.25000000  47.88999939
H    22.80999947   9.76000023  51.83000183
H    14.52000046   9.30000019  51.93999863
H    25.48999977   9.70000076  49.29000092
H    24.84000015  10.42000008  50.66999817
S    13.85000038   7.42000008  47.51999664
C    11.16000080   7.46999979  48.31999969
C    12.46000099   7.86999989  48.53000259
C    12.81000042   8.45000076  49.79999924
C    11.82000065   8.71000004  50.72999954
C    10.47000027   8.38000011  50.50000000
C     9.47000027   8.61999989  51.49000168
C     8.26000023   7.97999954  51.39999771
C     7.90999985   7.35000038  50.17000198
C     8.86999989   7.03000021  49.23999786
C    10.14000034   7.67000008  49.29000092
C    14.26000023   8.55000019  49.88999939
C    14.94999981   8.00000000  48.79000092
C    16.34000015   7.86999989  48.72000122
C     6.48000002   6.97000027  49.84000397
H     6.03017712   7.61260414  49.08315659
H    10.92000008   6.88000011  47.43999863
H    12.10999966   9.04999924  51.72000122
H     9.72999954   9.06999969  52.44999695
H     7.55999994   8.01000023  52.22000122
H     8.67000008   6.38999987  48.39000320
H    16.81999969   7.44000006  47.84000015
H     5.96000004   7.00000000  50.80999756
H     6.48000002   5.88999987  49.61000061
