96

S    16.73999977   8.88000011  58.25000000
C    19.44000053   9.00000000  57.51999664
C    18.15999985   8.59000015  57.22999954
C    17.77000046   7.99000025  55.98999786
C    18.78000069   7.82999992  55.06000137
C    20.13999939   8.10999966  55.35999680
C    21.21000099   7.81000042  54.47999954
C    22.50999832   8.19000053  54.72000122
C    22.79999924   8.89999962  55.91999817
C    21.83000183   9.18000031  56.84999847
C    20.48999977   8.78000069  56.59000015
C    16.32999992   7.90000010  55.81999969
C    15.62999916   8.34000015  56.97000122
C    14.26000023   8.57999992  56.90999985
C    24.23999977   9.30999947  56.13999939
H    24.70066833   8.58710670  56.81328201
H    19.56999969   9.53999996  58.44999695
H    18.63999939   7.26999998  54.13000107
H    21.02000046   7.23999977  53.57999802
H    23.31999969   7.83999968  54.08000183
H    21.97000122   9.77999973  57.75000000
H    13.83999920   9.10000038  57.77000046
H    24.76000023   9.34000015  55.18000031
H    24.23999977  10.31000042  56.58000183
S    13.14000034   7.07999992  53.41999817
C    10.47000027   6.94000006  54.10999680
C    11.71000004   7.46000004  54.40999985
C    12.03999996   7.95000029  55.72000122
C    10.98999977   8.14999962  56.59999847
C     9.68000031   7.68000031  56.35000229
C     8.56000042   7.86999989  57.19999695
C     7.28999996   7.46999979  56.84999847
C     7.03000021   6.77999973  55.63999939
C     8.09000015   6.71999979  54.75000000
C     9.42000008   7.13000011  55.04000092
C    13.48000050   8.05999947  55.86999893
C    14.21000004   7.57000017  54.75000000
C    15.59000015   7.53000021  54.68999863
C     5.66999960   6.15999985  55.38999939
H     5.04201078   6.83794308  54.81196594
H    10.26999950   6.39999962  53.18999863
H    11.21999931   8.40999985  57.63000107
H     8.75000000   8.42000008  58.11999893
H     6.52999973   7.46000004  57.63000107
H     8.02999973   6.32999992  53.74000168
H    16.02000046   7.13999987  53.76999664
H     5.31000042   6.02999973  56.40999603
H     6.00000000   5.32000017  54.75999832
S    13.81999969   5.18000031  50.56000137
C    11.18000031   4.56999969  51.14999771
C    12.50000000   4.51999998  51.53999710
C    12.94000053   3.88000011  52.74000168
C    12.01000023   3.19999981  53.52000427
C    10.62999916   3.40000010  53.29000092
C     9.65999985   2.79000020  54.13999939
C     8.32999992   3.00999999  53.87000275
C     7.94000053   3.73000002  52.71999741
C     8.85000038   4.15000010  51.77000046
C    10.22999954   4.05000019  52.06999969
C    14.37999916   4.00999975  52.90999985
C    14.98000050   4.65999985  51.79999924
C    16.34000015   4.92999983  51.79999924
C     6.48000002   4.00999975  52.45999908
H     6.06125307   3.57705832  51.55153275
H    10.95000076   5.15999985  50.27000046
H    12.34000015   2.42000008  54.20000076
H     9.94999981   2.29999995  55.06999969
H     7.63999987   2.51999998  54.54999924
H     8.53999996   4.65999985  50.86000061
H    16.82999992   5.23000002  50.87999725
H     5.93999958   3.61999989  53.33000183
H     6.32000017   5.09000015  52.55000305
S    17.64999962   3.42999983  55.20999908
C    20.30999947   4.07999992  54.62999725
C    18.97999954   4.15000010  54.29000092
C    18.53000069   4.81999969  53.11000061
C    19.40999985   5.25000000  52.14000320
C    20.79000092   5.05999994  52.37999725
C    21.70999908   5.52999973  51.39999771
C    23.05000114   5.52999973  51.73999786
C    23.50000000   5.12000036  53.02000046
C    22.62000084   4.57999992  53.94000244
C    21.21999931   4.56999969  53.67000198
C    17.07999992   4.69999981  52.97000122
C    16.45000076   4.00999975  54.03999710
C    15.13000011   3.60000014  54.02000046
C    24.94999886   5.28999996  53.40000153
H    25.26415443   4.92586517  54.37817001
H    20.76000023   3.58999991  55.48999786
H    19.18000031   5.65000010  51.14999771
H    21.21000099   6.06999969  50.59999847
H    23.71000099   5.96000004  51.00000000
H    23.01000214   4.07999992  54.81999969
H    14.63999939   2.98000002  54.77000427
H    25.17000008   6.37000036  53.47999954
H    25.55000114   4.94999981  52.55000305
