96

S    16.90000153   8.30999947  58.40999985
C    19.50000000   8.67999935  57.63999939
C    18.27999878   8.13000011  57.30999756
C    17.89999962   7.73000002  55.98999786
C    18.88000107   7.65999985  55.01999664
C    20.20000076   8.07999992  55.31000137
C    21.28999901   8.00000000  54.38999939
C    22.57999802   8.27000046  54.78000259
C    22.86000061   8.80999947  56.06999969
C    21.80000114   9.04999924  56.90999985
C    20.48999977   8.57999992  56.63000107
C    16.45000076   7.71000004  55.84999847
C    15.78999996   8.14000034  57.02999878
C    14.40999985   8.01999950  57.11000061
C    24.27000046   9.26000023  56.38999939
H    24.76874542   8.61875629  57.11674500
H    19.78000069   9.02999973  58.62999725
H    18.65999985   7.21000004  54.05000305
H    21.02000046   7.63000011  53.40000153
H    23.35000038   8.02999973  54.06000137
H    21.87999916   9.75000000  57.74000168
H    13.93000031   8.11999989  58.08000183
H    24.84999847   9.44000053  55.47999954
H    24.18000031  10.19000053  56.95999908
S    13.22000027   6.84000015  53.50999832
C    10.53999996   6.44999981  54.36000061
C    11.82000065   6.90999985  54.59000015
C    12.20999908   7.50000000  55.83000183
C    11.18000031   7.72000027  56.72999954
C     9.81000042   7.42999983  56.52999878
C     8.78999996   7.62000036  57.50000000
C     7.51999950   7.22000027  57.14000320
C     7.20000029   6.60000038  55.90000153
C     8.21000004   6.26999950  55.02999878
C     9.51000023   6.77999973  55.27999878
C    13.64999962   7.69000006  55.98999786
C    14.32999992   7.36999989  54.79000092
C    15.72000027   7.31999969  54.72000122
C     5.75999975   6.21000004  55.68000031
H     5.26221085   6.82868099  54.93331528
H    10.27999973   5.79999971  53.53000259
H    11.39999962   8.14999962  57.70000076
H     9.10000038   7.95000029  58.47999954
H     6.74000025   7.37999964  57.88999939
H     8.09000015   5.78999996  54.06000137
H    16.18999863   6.88000011  53.85000229
H     5.22000027   6.28000021  56.63000107
H     5.88999987   5.18000031  55.31999969
S    17.27000046   8.80999947  52.55000305
C    19.98999977   9.07999992  51.70000076
C    18.65999985   8.80999947  51.45000076
C    18.23999977   8.38000011  50.14999771
C    19.17000008   8.32999992  49.13000107
C    20.52999878   8.64000034  49.36000061
C    21.53000069   8.52000046  48.34999847
C    22.81999969   8.96000004  48.56999969
C    23.19999886   9.39999962  49.86000061
C    22.29999924   9.48000050  50.90000153
C    20.95999908   9.03999996  50.66999817
C    16.79000092   8.34999943  50.01999664
C    16.10000038   8.60000038  51.23000336
C    14.70999908   8.61999989  51.31000137
C    24.63999939   9.77000046  50.12000275
H    24.98729515   9.50775623  51.11935806
H    20.29000092   9.59999943  52.61000061
H    18.96999931   7.82999992  48.18999863
H    21.31999969   8.13000011  47.36000061
H    23.50000000   9.13000011  47.74000168
H    22.53000069   9.88000011  51.88000107
H    14.19000053   8.71999931  52.25999832
H    25.15999985   9.23999977  49.31999969
H    24.71999931  10.85000038  49.93999863
S    13.59000015   7.69999981  47.61000061
C    10.93999958   7.21000004  48.36999893
C    12.23000050   7.53999996  48.73000336
C    12.55000019   8.05999947  50.01999664
C    11.49000072   8.26000023  50.87999725
C    10.14999962   7.90999985  50.58000183
C     9.13999939   7.86999989  51.58000183
C     7.88000011   7.40000010  51.29000092
C     7.55000019   7.09000015  49.93999863
C     8.51000023   7.03000021  48.95999908
C     9.85999966   7.36000013  49.27999878
C    13.97999954   8.34000015  50.15999603
C    14.68000031   8.03999996  48.95999908
C    16.06999969   8.05000019  48.85000229
C     6.15000010   6.78999996  49.47000122
H     5.80992222   7.37096548  48.61272430
H    10.70000076   7.00999975  47.32999802
H    11.63000011   8.67000008  51.88000107
H     9.35999966   8.32999992  52.54000092
H     7.07999992   7.40000010  52.02999878
H     8.22000027   6.67999983  47.97999954
H    16.56999969   7.77999973  47.93000031
H     5.52999973   6.98000002  50.35999680
H     6.05999994   5.73999977  49.15999985
