96

S    16.55999947   8.53999996  57.94000244
C    19.29000092   8.56000042  57.31999969
C    18.00000000   8.25000000  56.95000076
C    17.67000008   7.73000002  55.65999985
C    18.72999954   7.67000008  54.75999832
C    20.03000069   8.10999966  55.08999634
C    21.11999893   8.14999962  54.16999817
C    22.43000031   8.31999969  54.54000092
C    22.70999908   8.80999947  55.84000015
C    21.70000076   8.92000008  56.76000214
C    20.38000107   8.48999977  56.43000031
C    16.23999977   7.50000000  55.50000000
C    15.52000046   7.94000053  56.63999939
C    14.14000034   8.10999966  56.70000076
C    24.15999985   9.00000000  56.25000000
H    24.50976562   8.36471176  57.06373978
H    19.43000031   9.09000015  58.27000046
H    18.45000076   7.23999977  53.80000305
H    20.81000137   7.94000053  53.15000153
H    23.13999939   8.05999947  53.75999832
H    21.84000015   9.30000019  57.77000046
H    13.69999981   8.43999958  57.63999939
H    24.79999924   8.88000011  55.35999680
H    24.26000214  10.07999992  56.38000107
S    12.97999954   7.13000011  53.04999924
C    10.27999973   6.84999990  53.73000336
C    11.54999924   7.23000002  54.09000015
C    11.92000008   7.59999990  55.43000031
C    10.93000031   7.57000017  56.38000107
C     9.56999969   7.40000010  56.02000427
C     8.50000000   7.59999990  56.95000076
C     7.21000004   7.30999994  56.59999847
C     6.90000010   6.78999996  55.31000137
C     7.90000010   6.70000029  54.36999893
C     9.22999954   7.11000013  54.65000153
C    13.35999966   7.73999977  55.59999847
C    14.06999969   7.36999989  54.43000031
C    15.44000053   7.14999962  54.40999985
C     5.44000053   6.50000000  55.04000092
H     5.14796495   7.14817619  54.21375275
H    10.03000069   6.53999996  52.71999741
H    11.21000099   7.72000027  57.42000198
H     8.78000069   7.79999971  57.97999954
H     6.47000027   7.50999975  57.36999893
H     7.86999989   6.40999985  53.33000183
H    15.98000050   6.74000025  53.54999924
H     4.82999992   6.76000023  55.90999985
H     5.19999981   5.45000029  54.85000229
S    13.53999996   4.79999971  50.06999969
C    10.84000015   4.46000004  50.76000214
C    12.15999985   4.21000004  51.02000427
C    12.55000019   3.65000010  52.29000092
C    11.59000015   3.26999998  53.20999908
C    10.21999931   3.48000002  52.90999985
C     9.18000031   3.00999999  53.75999832
C     7.85000038   3.08999991  53.40999985
C     7.44000006   3.84999990  52.28000259
C     8.43000031   4.32000017  51.44000244
C     9.81999969   4.11999989  51.68000031
C    13.99000072   3.72000003  52.48000336
C    14.63000107   4.40000010  51.40999603
C    15.97000027   4.76999998  51.39999771
C     6.00000000   4.19999981  52.01000214
H     5.57181787   3.77181768  51.10367966
H    10.50000000   4.85000038  49.80999756
H    11.87999916   2.63999987  54.05000305
H     9.56999969   2.50000000  54.62999725
H     7.17999983   2.59999990  54.09999847
H     8.17000008   4.84000015  50.52000046
H    16.42000008   5.27999973  50.56000137
H     5.40000010   3.76999998  52.83000183
H     5.82000017   5.27999973  52.02000046
S    17.25000000   3.53999996  54.89999771
C    19.93000031   4.23000002  54.34000015
C    18.60000038   4.23999977  54.00000000
C    18.12000084   4.72000027  52.74000168
C    18.97999954   5.33999968  51.84000015
C    20.35000038   5.42000008  52.18000031
C    21.34000015   5.88000011  51.26999664
C    22.69000053   5.68000031  51.45999908
C    23.13999939   5.00000000  52.61000061
C    22.20999908   4.61999989  53.54999924
C    20.81000137   4.85000038  53.41999817
C    16.69999886   4.44999981  52.55000305
C    16.03999901   3.79999995  53.61999893
C    14.68000031   3.51999998  53.68000031
C    24.63000107   4.92999983  52.85999680
H    25.01437759   5.22896004  53.83517838
H    20.17999840   3.51999998  55.13000107
H    18.61999893   5.82999992  50.93999863
H    20.93000031   6.38000011  50.40000153
H    23.36000061   5.92000008  50.63000107
H    22.50000000   4.17000008  54.50000000
H    14.22999954   3.24000001  54.62999725
H    25.10000038   5.53999996  52.06999969
H    24.86999893   3.86999989  52.70999908
