96

S    16.90999985   9.19999981  58.15999985
C    19.63000107   9.18000031  57.56999969
C    18.36000061   8.80999947  57.19999695
C    18.02999878   8.23999977  55.93999863
C    19.06999969   8.05999947  55.05000305
C    20.43000031   8.30999947  55.38000107
C    21.47000122   8.03999996  54.45000076
C    22.73999977   8.51000023  54.68999863
C    23.05000114   9.06000042  55.96000290
C    22.06999969   9.15999985  56.90999985
C    20.69000053   8.93999958  56.65000153
C    16.59000015   8.03999996  55.79999924
C    15.85000038   8.59000015  56.86999893
C    14.47000027   8.76999950  56.84999847
C    24.43000031   9.59000015  56.29000092
H    24.89251900   8.92112446  57.01580048
H    19.78999901   9.57999992  58.56999969
H    18.94000053   7.64999962  54.05000305
H    21.28999901   7.48000050  53.54000092
H    23.46999931   8.36000061  53.89999771
H    22.30999947   9.59999943  57.88000107
H    14.04999924   9.22000027  57.74000168
H    25.02000046   9.53999996  55.37000275
H    24.44000053  10.62999916  56.63999939
S    13.48000050   7.04999971  53.34999847
C    10.77000046   7.17000008  53.99000168
C    12.06999969   7.50999975  54.31999969
C    12.35999966   8.18000031  55.54999924
C    11.32999992   8.56999969  56.38000107
C     9.98999977   8.25000000  56.05999756
C     8.96000004   8.30999947  57.04000092
C     7.75000000   7.67000008  56.86999893
C     7.46999979   7.03999996  55.63000107
C     8.40999985   6.94000006  54.62999725
C     9.72000027   7.44999981  54.88999939
C    13.78999901   8.36999989  55.70000076
C    14.48999977   7.69000006  54.65999985
C    15.86999989   7.55000019  54.69999695
C     6.05000019   6.56000042  55.43000031
H     5.51878595   7.24703693  54.77129364
H    10.57000065   6.76000023  53.01000214
H    11.54999924   8.94999981  57.36999893
H     9.28999996   8.59000015  58.02999878
H     6.98000002   7.69000006  57.63000107
H     8.25000000   6.50000000  53.64999771
H    16.43000031   7.26999998  53.81000137
H     5.52999973   6.53999996  56.38999939
H     6.02999973   5.52999973  55.05000305
S    17.17000008   9.30000019  52.25000000
C    19.90999985   9.25000000  51.60999680
C    18.61999893   8.86999989  51.31000137
C    18.23999977   8.38999939  50.01999664
C    19.22000122   8.27999973  49.03999710
C    20.55000114   8.69999981  49.29999924
C    21.61000061   8.55000019  48.36999893
C    22.90999985   8.93999958  48.59000397
C    23.25000000   9.43000031  49.87999725
C    22.26000023   9.55000019  50.84000015
C    20.90999985   9.19999981  50.59999847
C    16.79999924   8.42000008  49.79999924
C    16.07999992   8.96000004  50.90000153
C    14.70000076   9.11000061  50.87999725
C    24.68000031   9.77999973  50.19000244
H    25.03664207   9.16657257  51.01741791
H    20.17000008   9.55999947  52.61000061
H    18.96999931   7.77999973  48.11000061
H    21.30000114   8.14000034  47.41000366
H    23.65999985   8.78000069  47.83000183
H    22.47999954   9.89999962  51.84999847
H    14.04000092   9.56999969  51.60999680
H    25.34000015   9.52999973  49.34999847
H    24.86999893  10.85000038  50.38000107
S    13.66000080   7.76000023  47.29000092
C    10.90999985   7.71000004  47.93000031
C    12.20999908   8.01999950  48.27000046
C    12.61000061   8.56999969  49.52999878
C    11.61999893   8.60999966  50.50000000
C    10.27999973   8.21000004  50.27999878
C     9.30000019   8.25000000  51.31000137
C     8.00000000   7.88999987  51.05999756
C     7.64999962   7.50999975  49.73999786
C     8.55000019   7.53999996  48.68999863
C     9.92000008   7.77999973  48.95000076
C    14.04999924   8.71999931  49.69999695
C    14.77000046   8.23999977  48.57999802
C    16.15999985   8.09000015  48.60000229
C     6.19000006   7.18999958  49.47999954
H     5.81884432   7.89662313  48.73768616
H    10.64000034   7.34000015  46.95000076
H    11.92000008   8.78999996  51.52999878
H     9.65999985   8.80000019  52.18000031
H     7.17000008   7.96999979  51.75000000
H     8.09000015   7.31999969  47.72999573
H    16.80999947   7.76000023  47.80000305
H     5.59999990   7.28999996  50.40000153
H     6.06999969   6.12999964  49.20000076
