96

S    16.77999878   9.30000019  58.00000000
C    19.45000076   9.35999966  57.32999802
C    18.17000008   9.04999924  56.91999817
C    17.82999992   8.46000004  55.66999817
C    18.85000038   8.36000061  54.73999786
C    20.17999840   8.60000038  55.13999939
C    21.28000069   8.52999973  54.22999954
C    22.57999802   8.78000069  54.59000015
C    22.86999893   9.26000023  55.89000320
C    21.84999847   9.43000031  56.79999924
C    20.52000046   9.04999924  56.45999908
C    16.38000107   8.34999943  55.50000000
C    15.72000027   8.75000000  56.69000244
C    14.32999992   8.82999992  56.72999954
C    24.27000046   9.70000076  56.24000168
H    24.75377274   9.16642570  57.05814743
H    19.64999962   9.98000050  58.20000076
H    18.64999962   7.85000038  53.80000305
H    20.96999931   8.25000000  53.22000122
H    23.35000038   8.64000034  53.82999802
H    21.94000053   9.89999962  57.77999878
H    13.83999920   9.02000046  57.68000031
H    24.77000046   9.43000031  55.30000305
H    24.31999969  10.78999996  56.38999939
S    13.09999943   7.68000031  53.20000076
C    10.39999962   7.50999975  54.01000214
C    11.69000053   7.90000010  54.25000000
C    12.07999992   8.31999969  55.56999969
C    11.10000038   8.34000015  56.53999710
C     9.72000027   8.11999989  56.31000137
C     8.73999977   8.19000053  57.34000397
C     7.44000006   7.90999985  57.01000214
C     7.09000015   7.46999979  55.70999908
C     8.03999996   7.22000027  54.73999786
C     9.39000034   7.60999966  55.00000000
C    13.52000046   8.50000000  55.63000107
C    14.25000000   8.10999966  54.47999954
C    15.62999916   7.95000029  54.38999939
C     5.64000034   7.11999989  55.45999908
H     5.16972399   7.70428276  54.66907883
H    10.03000069   6.94000006  53.15000153
H    11.38000011   8.67000008  57.54000092
H     8.98999977   8.53999996  58.34000015
H     6.71999979   7.69999981  57.80000305
H     7.76000023   6.76000023  53.80000305
H    15.98999977   7.49000025  53.47999954
H     5.05999994   7.21000004  56.38999939
H     5.65000010   6.05999994  55.20999908
S    13.81000042   5.59000015  50.45000076
C    11.13999939   4.79999971  50.94999695
C    12.48000050   4.73000002  51.24000168
C    12.94999981   4.17000008  52.47000122
C    12.00000000   3.68999982  53.36000061
C    10.60999966   3.78999996  53.15000153
C     9.70000076   3.40000010  54.18000031
C     8.34999943   3.50000000  53.95000076
C     7.90000010   4.05000019  52.71999741
C     8.78000069   4.55999994  51.79999924
C    10.19000053   4.40000010  51.91999817
C    14.37999916   4.34999990  52.70000076
C    14.93000031   5.29999971  51.79999924
C    16.28000069   5.65999985  51.81999969
C     6.40999985   4.25000000  52.51999664
H     6.02598953   3.65976191  51.68797684
H    10.88000107   5.36999989  50.06000137
H    12.25000000   3.28999996  54.34000015
H    10.21999931   2.86999989  54.98000336
H     7.59999990   2.99000001  54.54000092
H     8.48999977   5.09000015  50.89000320
H    16.75000000   6.23000050  51.02000427
H     5.91000032   3.79999995  53.39000320
H     6.32000017   5.32999992  52.39999771
S    17.67000008   3.63000011  54.99000168
C    20.29000092   4.39000034  54.50000000
C    18.96999931   4.46000004  54.12000275
C    18.53000069   5.29999971  53.04000092
C    19.44000053   6.00000000  52.28000259
C    20.81999969   5.71000004  52.43000031
C    21.80999947   6.02999973  51.45999908
C    23.12000084   5.59999990  51.58000183
C    23.54000092   5.13000011  52.84999847
C    22.60999870   4.76999998  53.80000305
C    21.21999931   4.94000006  53.57999802
C    17.09000015   5.17000008  52.84999847
C    16.52000046   4.30999994  53.81999969
C    15.19000053   3.88999987  53.74000168
C    24.99000168   4.82999992  53.13999939
H    25.39594078   5.37125301  53.99460983
H    20.58000183   3.91999984  55.43000031
H    19.11999893   6.60000038  51.43000031
H    21.51000023   6.58999968  50.58000183
H    23.95000076   5.93999958  50.97999954
H    22.96999931   4.13999987  54.61000061
H    14.82999992   3.23000002  54.51000214
H    25.43999863   5.03000021  52.15999985
H    25.13000107   3.74000025  53.11999893
