96

S    16.63999939   8.57999992  58.27999878
C    19.37999916   8.76000023  57.68000031
C    18.09000015   8.47999954  57.27000427
C    17.75000000   7.99000025  55.97000122
C    18.79999924   7.92999983  55.06999969
C    20.13999939   8.19000053  55.45000076
C    21.24000168   8.13000011  54.54999924
C    22.53000069   8.43000031  54.92000198
C    22.79999924   8.86999989  56.24000168
C    21.81999969   8.80000019  57.19999695
C    20.48000145   8.52000046  56.81999969
C    16.31999969   7.82999992  55.77000046
C    15.57000065   8.19999981  56.90999985
C    14.21000004   8.43000031  57.00000000
C    24.21999931   9.26000023  56.59000015
H    24.73220825   8.50591469  57.18757629
H    19.48999977   9.23999977  58.63999939
H    18.51000023   7.67000008  54.06000137
H    21.02999878   7.73000002  53.55999756
H    23.36000061   8.28999996  54.23999786
H    22.04000092   9.15999985  58.20000076
H    13.82999992   8.90999985  57.90000153
H    24.73999977   9.48000050  55.65000153
H    24.25000000  10.24000072  57.09999847
S    13.01000023   7.18999958  53.47000122
C    10.31000042   7.31999969  54.03999710
C    11.59000015   7.62000036  54.43999863
C    11.96000004   7.99000025  55.77000046
C    10.93000031   8.26000023  56.65000153
C     9.61000061   7.94000053  56.26999664
C     8.52999973   8.03999996  57.19999695
C     7.25000000   7.57999992  57.00000000
C     6.98000002   6.90999985  55.77999878
C     7.90999985   6.98999977  54.77000427
C     9.25000000   7.40999985  54.98000336
C    13.40999985   8.01999950  55.93000031
C    14.13000011   7.63999987  54.77000427
C    15.52000046   7.55000019  54.65000153
C     5.59000015   6.38000011  55.51000214
H     5.22112370   7.05390930  54.73677826
H    10.15999985   7.00999975  53.01000214
H    11.09000015   8.40999985  57.71999741
H     8.67999935   8.46000004  58.18000031
H     6.48999977   7.82999992  57.74000168
H     7.65999985   6.44999981  53.86000061
H    16.00000000   7.30999994  53.70999908
H     5.00999975   6.48999977  56.44000244
H     5.56999969   5.35000038  55.13999939
S    16.92000008   9.17000008  52.18999863
C    19.62000084   9.36999989  51.51000214
C    18.32999992   9.06000042  51.12999725
C    17.95999908   8.73000050  49.79000092
C    18.94000053   8.63000011  48.81999969
C    20.25000000   9.00000000  49.19000244
C    21.30000114   8.71000004  48.27999878
C    22.63000107   8.89999962  48.54999924
C    22.98000145   9.26000023  49.87999725
C    22.03000069   9.40999985  50.86999893
C    20.65999985   9.22000027  50.56000137
C    16.51000023   8.67999935  49.64000320
C    15.80000019   9.00000000  50.81999969
C    14.40999985   8.97999954  50.90999985
C    24.34999847   9.68999958  50.33000183
H    24.84249496   8.94768715  50.95811081
H    19.89999962   9.50000000  52.56000137
H    18.88000107   8.18000031  47.83000183
H    21.02999878   8.23000050  47.34000397
H    23.26000023   8.76000023  47.67000198
H    22.29000092   9.85999966  51.81999969
H    13.93000031   9.22999954  51.86000061
H    25.03999901   9.81000042  49.47000122
H    24.13000107  10.72000027  50.63999939
S    13.34000015   8.01999950  47.27000427
C    10.62000084   7.60999966  47.95999908
C    11.89000034   8.01999950  48.29999924
C    12.22000027   8.47999954  49.61999893
C    11.21999931   8.59000015  50.56999969
C     9.85999966   8.36999989  50.22999573
C     8.80000019   8.50000000  51.17000198
C     7.53999996   8.06999969  50.81999969
C     7.28999996   7.53000021  49.52999878
C     8.28999996   7.46000004  48.57999802
C     9.59999943   7.90000010  48.89999771
C    13.64999962   8.69000053  49.78000259
C    14.42000008   8.34000015  48.63999939
C    15.80000019   8.21000004  48.52000427
C     5.92999983   6.97000027  49.18000031
H     5.38938093   7.61020660  48.48288727
H    10.34999943   7.18999958  47.00000000
H    11.39000034   8.84000015  51.60999680
H     8.94999981   8.82000065  52.19999695
H     6.71999979   8.06999969  51.52999878
H     8.18000031   6.98000002  47.61000061
H    16.26000023   7.73000002  47.67000198
H     5.36000013   6.80000019  50.10000229
H     6.11999989   6.01000023  48.68999863
