96

S    16.88999939   8.63000011  58.15999985
C    19.52999878   8.64000034  57.43999863
C    18.27000046   8.21000004  57.11999893
C    17.89999962   7.90000010  55.77000046
C    18.95000076   7.73999977  54.88999939
C    20.28000069   8.10999966  55.17000198
C    21.31000137   8.10000038  54.18000031
C    22.62000084   8.26000023  54.54999924
C    22.95999908   8.69000053  55.86000061
C    21.94999886   8.85999966  56.79000092
C    20.59999847   8.52000046  56.51000214
C    16.45000076   7.77999973  55.68999863
C    15.77000046   8.30000019  56.81999969
C    14.39000034   8.46000004  56.90000153
C    24.34999847   9.13000011  56.24000168
H    24.79743958   8.49790192  57.00704193
H    19.85000038   8.86999989  58.44999695
H    18.79999924   7.42000008  53.86000061
H    21.05999947   7.95000029  53.13000107
H    23.38999939   8.21000004  53.77999878
H    22.10000038   9.13999939  57.83000183
H    14.00000000   8.57999992  57.90999985
H    24.96000099   8.96000004  55.34999847
H    24.38999939  10.19000053  56.52999878
S    13.23999977   7.07000017  53.34999847
C    10.52000046   7.27999973  53.93000031
C    11.82000065   7.53000021  54.31000137
C    12.18000031   8.02999973  55.59999847
C    11.14999962   8.11999989  56.52000046
C     9.84000015   7.69999981  56.19999695
C     8.80000019   7.76000023  57.16999817
C     7.51999950   7.28999996  56.97000122
C     7.17999983   6.90999985  55.65000153
C     8.11999989   6.90000010  54.64000320
C     9.47000027   7.25000000  54.87999725
C    13.61999989   8.10999966  55.77999878
C    14.30999947   7.55999994  54.66999817
C    15.69000053   7.36999989  54.59000015
C     5.78999996   6.44000006  55.27000046
H     5.34141588   7.10219526  54.52947998
H    10.36999893   7.13999987  52.85999680
H    11.39000034   8.22000027  57.57999802
H     9.04999924   8.02999973  58.18999863
H     6.78999996   7.21000004  57.77000046
H     7.72000027   6.61999989  53.67000198
H    16.10999870   7.23000002  53.60000229
H     5.23999977   6.30999994  56.22000122
H     5.88000011   5.42999983  54.85000229
S    17.13999939   9.07999992  52.05999756
C    19.80999947   9.03999996  51.25999832
C    18.50000000   8.75000000  50.96000290
C    18.12000084   8.27999973  49.65999985
C    19.11999893   8.06999969  48.73000336
C    20.46999931   8.39999962  48.95999908
C    21.53000069   7.99000025  48.09999847
C    22.81999969   8.42000008  48.33000183
C    23.11000061   8.98999977  49.59000015
C    22.14999962   9.28999996  50.52999878
C    20.81000137   8.89999962  50.27000046
C    16.67000008   8.30000019  49.55999756
C    16.00000000   8.69000053  50.75000000
C    14.63000107   8.86999989  50.77999878
C    24.56000137   9.32999992  49.86000061
H    25.05081558   8.56176853  50.45751572
H    20.17999840   9.42000008  52.21000290
H    18.85000038   7.63000011  47.77000046
H    21.35000038   7.36000013  47.22999954
H    23.61000061   8.05000019  47.68000031
H    22.43999863   9.65999985  51.52000046
H    14.11000061   9.06000042  51.72000122
H    25.09000015   9.35000038  48.89999771
H    24.63000107  10.29999924  50.38000107
S    13.40000057   7.64999962  47.19999695
C    10.77000046   7.57999992  47.95999908
C    12.05000019   7.96999979  48.30999756
C    12.39999962   8.46000004  49.61000061
C    11.39999962   8.69000053  50.54000092
C    10.05000019   8.39999962  50.20999908
C     8.94999981   8.56999969  51.09000397
C     7.64999962   8.34999943  50.70999908
C     7.42000008   7.90000010  49.38000107
C     8.43000031   7.60999966  48.48999786
C     9.77000046   7.77999973  48.94000244
C    13.85000038   8.50000000  49.66999817
C    14.52999973   8.14000034  48.47999954
C    15.90999985   8.00000000  48.41999817
C     6.05000019   7.44999981  48.94000244
H     5.63785267   8.06111431  48.13702393
H    10.55999947   7.21000004  46.95999908
H    11.56999969   9.00000000  51.56000137
H     9.04999924   8.78999996  52.15000153
H     6.84000015   8.46000004  51.42000198
H     8.19000053   7.25000000  47.49000168
H    16.38000107   7.69999981  47.49000168
H     5.36999989   7.51999950  49.79999924
H     6.01000023   6.39999962  48.62999725
