96

S    17.10000038   8.69000053  58.27999878
C    19.76000023   9.02000046  57.61000061
C    18.48999977   8.71000004  57.16999817
C    18.12999916   8.27000046  55.84999847
C    19.15999985   8.18000031  54.93000031
C    20.48000145   8.52000046  55.30000305
C    21.56999969   8.19999981  54.43999863
C    22.86999893   8.47000027  54.78000259
C    23.16999817   9.09000015  56.02000427
C    22.13000107   9.32999992  56.88999939
C    20.76999855   9.02999973  56.60999680
C    16.69999886   8.09000015  55.70999908
C    16.01000023   8.25000000  56.95000076
C    14.63000107   8.38999939  57.00000000
C    24.57999992   9.48999977  56.36000061
H    25.05705452   8.85630035  57.10762787
H    20.09000015   9.31999969  58.60000229
H    18.96999931   7.71000004  53.95999908
H    21.35999870   7.78999996  53.44999695
H    23.62999916   8.42000008  54.01000214
H    22.39999962   9.63000011  57.90999985
H    14.14999962   8.56999969  57.95999908
H    25.19000053   9.48999977  55.44000244
H    24.48999786  10.52999973  56.70000076
S    13.47000027   7.26000023  53.41999817
C    10.75000000   7.20000029  54.16999817
C    12.05000019   7.57000017  54.43999863
C    12.42000008   8.07999992  55.72999954
C    11.46000004   8.19000053  56.72000122
C    10.14999962   7.71000004  56.45999908
C     9.13000011   7.92000008  57.43000031
C     7.77999973   7.75000000  57.22999954
C     7.42999983   7.31999969  55.91999817
C     8.34000015   7.09000015  54.92000198
C     9.72999954   7.32999992  55.13999939
C    13.86000061   8.18000031  55.84999847
C    14.57999992   7.78999996  54.68999863
C    15.97000027   7.76999998  54.55999756
C     6.01999998   6.90000010  55.61000061
H     5.57463551   7.61399651  54.91720963
H    10.36000061   6.76999998  53.25000000
H    11.75000000   8.57999992  57.69000244
H     9.55000019   8.21000004  58.39000320
H     7.04999971   7.86999989  58.02999878
H     8.02999973   6.76999998  53.92000198
H    16.32999992   7.42000008  53.60000229
H     5.47999954   6.80000019  56.56000137
H     6.11000013   5.96000004  55.05000305
S    17.34000015   9.31999969  52.05999756
C    20.03000069   9.31999969  51.46999741
C    18.77000046   8.90999985  51.10000229
C    18.43000031   8.38000011  49.80999756
C    19.47000122   8.34999943  48.88999939
C    20.81999969   8.55000019  49.26000214
C    21.94000053   8.27999973  48.41999817
C    23.22000122   8.53999996  48.86000061
C    23.45999908   9.25000000  50.06000137
C    22.40999985   9.48999977  50.91999817
C    21.09000015   9.10000038  50.56000137
C    17.00000000   8.23000050  49.61000061
C    16.31000137   8.60999966  50.79999924
C    14.93000031   8.65999985  50.87999725
C    24.82000160   9.85000038  50.35999680
H    25.33762741   9.21183014  51.07616806
H    20.30999947   9.76000023  52.42000198
H    19.30999947   7.94000053  47.88999939
H    21.77999878   7.90999985  47.41000366
H    24.09000015   8.30000019  48.23999786
H    22.63000107   9.98999977  51.86000061
H    14.52999973   8.93999958  51.84000015
H    25.38000107   9.96000004  49.43000031
H    24.68000031  10.88000107  50.70000076
S    13.75000000   7.68000031  47.23999786
C    11.09000015   7.57000017  47.97999954
C    12.35999966   7.99000025  48.29000092
C    12.75000000   8.55000019  49.54999924
C    11.77999973   8.76000023  50.51000214
C    10.46000004   8.32999992  50.24000168
C     9.44000053   8.32999992  51.24000168
C     8.13000011   7.99000025  51.00000000
C     7.75000000   7.46999979  49.73999786
C     8.76000023   7.26999998  48.81999969
C    10.08999920   7.73999977  48.97999573
C    14.19999981   8.56000042  49.68000031
C    14.88999939   8.06999969  48.54000092
C    16.26000023   7.85000038  48.48999786
C     6.34999990   7.00000000  49.43999863
H     5.80939245   7.73977852  48.84959793
H    10.85999966   7.00000000  47.08000183
H    12.07999992   9.15999985  51.47999573
H     9.84000015   8.59000015  52.21000290
H     7.42999983   8.13000011  51.81999969
H     8.56999969   6.76000023  47.88000107
H    16.81999969   7.53999996  47.61000061
H     5.80999947   6.76000023  50.37000275
H     6.43000031   6.05000019  48.90999603
