96

S    16.93000031   9.13999939  57.85999680
C    19.65999985   9.50000000  57.14000320
C    18.38000107   9.11000061  56.83000183
C    18.02000046   8.52999973  55.56999969
C    19.04999924   8.42000008  54.65999985
C    20.38000107   8.85000038  54.93000031
C    21.44000053   8.63000011  54.01000214
C    22.73999977   8.93999958  54.31999969
C    23.05999947   9.57999992  55.54999924
C    22.06000137   9.81999969  56.46999741
C    20.72000122   9.44999981  56.18999863
C    16.56999969   8.42000008  55.38999939
C    15.80999947   8.82000065  56.52000046
C    14.45000076   9.09000015  56.56000137
C    24.51999855   9.72999954  55.91999817
H    24.82635880   8.88216782  56.53271866
H    19.88000107   9.70000076  58.18000031
H    18.77000046   8.10999966  53.66000366
H    21.14000130   8.09000015  53.11000061
H    23.52000046   8.61999989  53.63999939
H    22.20999908  10.27999973  57.43999863
H    13.99000072   9.53999996  57.43000031
H    25.20999908   9.80000019  55.06999969
H    24.63999939  10.62000084  56.53999710
S    13.38000107   7.60999966  52.98999786
C    10.67999935   7.67000008  53.62999725
C    11.95000076   8.14999962  53.88999939
C    12.31999969   8.69000053  55.17000198
C    11.39000034   8.92000008  56.16000366
C    10.11000061   8.38999939  55.93000031
C     9.03999996   8.51000023  56.86999893
C     7.79999971   7.99000025  56.63000107
C     7.46999979   7.36000013  55.40000153
C     8.50000000   7.09999990  54.52000046
C     9.78999996   7.64999962  54.72999954
C    13.76000023   8.78000069  55.38999939
C    14.42999935   8.31999969  54.22999954
C    15.81999969   8.22000027  54.22999954
C     6.05999994   6.86999989  55.14999771
H     5.50350428   7.46930265  54.42940903
H    10.21999931   7.18999958  52.77000046
H    11.68000031   9.42000008  57.09000015
H     9.22999954   9.10000038  57.76000214
H     6.94999981   8.19999981  57.28000259
H     8.30000019   6.80999994  53.48999786
H    16.28999901   7.97999954  53.27999878
H     5.55999994   6.91999960  56.12999725
H     6.01000023   5.82000017  54.82999802
S    17.51000023   9.98999977  52.11999893
C    20.20999908  10.07999992  51.33999634
C    18.92000008   9.68999958  51.07999802
C    18.59000015   8.97000027  49.88999939
C    19.63999939   8.76000023  49.00000000
C    21.00000000   9.02999973  49.26000214
C    22.09000015   8.75000000  48.37999725
C    23.36000061   9.22000027  48.62999725
C    23.59000015   9.78999996  49.91000366
C    22.60999870  10.13000011  50.80999756
C    21.28000069   9.77000046  50.45999908
C    17.14999962   8.89000034  49.72999954
C    16.43000031   9.36999989  50.84999847
C    15.03999901   9.50000000  50.86000061
C    24.97999954  10.25000000  50.31000137
H    25.39982414   9.82305908  51.22080612
H    20.48999977  10.62000084  52.23999786
H    19.37999916   8.25000000  48.06999969
H    21.84000015   8.22000027  47.45999908
H    24.15999985   9.19999981  47.90999985
H    22.75000000  10.62000084  51.77000046
H    14.55000019   9.98000050  51.69000244
H    25.68000031   9.94999981  49.52999878
H    24.99000168  11.33999920  50.45999908
S    13.96999931   8.27999973  47.28000259
C    11.23999977   8.02999973  47.97000122
C    12.51999950   8.40999985  48.29999924
C    12.86999893   8.93999958  49.58000183
C    11.85999966   9.26999950  50.47000122
C    10.52999973   8.90999985  50.13000107
C     9.46000004   9.15999985  51.03000259
C     8.19999981   8.67000008  50.77999878
C     7.92000008   7.86999989  49.64000320
C     8.84000015   7.88000011  48.61999893
C    10.19000053   8.26000023  48.88999939
C    14.30999947   9.07999992  49.73999786
C    15.06999969   8.71000004  48.60000229
C    16.46000099   8.63000011  48.53000259
C     6.53999996   7.28999996  49.36999893
H     5.97150850   7.87270355  48.64517212
H    11.03000069   7.64999962  46.97000122
H    12.06999969   9.86999989  51.35000229
H     9.68000031   9.65999985  51.97000122
H     7.40999985   9.07999992  51.39999771
H     8.60000038   7.51999950  47.63000107
H    16.92000008   8.27999973  47.62000275
H     6.01999998   7.23999977  50.33000183
H     6.53999996   6.23000050  49.10999680
