96

S    16.61999893   9.02000046  58.18999863
C    19.37999916   8.89000034  57.60000229
C    18.07999992   8.59000015  57.28000259
C    17.68000031   7.95000029  56.04999924
C    18.67000008   7.77999973  55.10000229
C    20.02000046   8.02999973  55.43000031
C    21.11999893   7.81000042  54.54000092
C    22.43000031   8.13000011  54.80999756
C    22.72000122   8.76000023  56.04999924
C    21.73000145   9.10000038  56.93000031
C    20.42000008   8.57999992  56.70000076
C    16.26000023   8.11999989  55.79000092
C    15.48999977   8.59000015  56.88999939
C    14.09999943   8.59000015  56.90000153
C    24.14999962   9.11999989  56.38999939
H    24.56953049   8.84268379  57.35705185
H    19.59000015   9.63000011  58.36999893
H    18.29000092   7.42999983  54.13999939
H    20.95000076   7.55999994  53.50000000
H    23.29999924   8.01999950  54.16999817
H    21.94999886   9.71000004  57.80000305
H    13.60999966   8.97999954  57.77999878
H    24.87999916   8.65999985  55.70999908
H    24.28999901  10.19999981  56.27999878
S    13.10999966   7.03000021  53.41999817
C    10.34000015   7.09999990  53.96999741
C    11.63000011   7.39000034  54.34000015
C    11.97000027   7.90000010  55.63000107
C    10.92000008   8.19000053  56.47999573
C     9.59000015   7.77999973  56.20999908
C     8.55000019   7.94000053  57.16999817
C     7.23000002   7.62000036  56.91999817
C     6.96000004   7.03000021  55.65999985
C     7.94000053   6.84000015  54.71000290
C     9.27999973   7.28999996  54.89999771
C    13.40000057   8.11999989  55.77999878
C    14.18000031   7.71000004  54.65999985
C    15.57000065   7.69000006  54.65000153
C     5.52999973   6.63000011  55.38999939
H     5.20393372   7.21833706  54.53230286
H    10.01999950   6.50000000  53.13000107
H    11.06999969   8.76000023  57.38999939
H     8.82000065   8.30999947  58.15999985
H     6.44000006   7.57999992  57.65999603
H     7.63999987   6.32999992  53.80000305
H    16.06999969   7.25000000  53.80000305
H     4.77999973   6.80999994  56.17000198
H     5.45000029   5.59999990  55.02999878
S    17.39999962   9.21000004  52.11000061
C    20.06000137   9.31999969  51.38000107
C    18.77000046   9.02000046  51.00999832
C    18.34000015   8.55000019  49.72000122
C    19.34000015   8.34999943  48.77999878
C    20.65999985   8.75000000  49.09999847
C    21.64999962   8.71000004  48.08000183
C    22.95999908   9.03999996  48.34999847
C    23.38999939   9.22999954  49.68999863
C    22.46000099   9.40999985  50.68999863
C    21.07999992   9.19999981  50.40000153
C    16.90000153   8.40999985  49.65999985
C    16.22999954   8.71000004  50.87999725
C    14.85000038   8.73000050  50.97999954
C    24.86000061   9.55000019  49.82999802
H    25.23790550   9.15070438  50.77119446
H    20.32999992   9.55999947  52.41000366
H    19.06999969   7.97999954  47.80000305
H    21.40000153   8.40999985  47.05999756
H    23.71000099   9.13999939  47.56999969
H    22.80999947   9.63000011  51.69000244
H    14.42999935   9.26000023  51.83000183
H    25.38000107   9.30999947  48.89999771
H    24.96000099  10.64000034  49.89999771
S    13.61999989   7.60999966  47.29999924
C    10.95000076   7.68000031  48.02000046
C    12.25000000   7.83999968  48.40999985
C    12.64999962   8.18000031  49.73999786
C    11.63000011   8.31999969  50.66999817
C    10.26999950   8.15999985  50.31999969
C     9.17000008   8.38999939  51.18999863
C     7.88999987   8.07999992  50.83000183
C     7.53999996   7.59000015  49.54000092
C     8.57999992   7.37999964  48.66000366
C     9.90999985   7.76999998  48.97999573
C    14.09000015   8.30000019  49.87999725
C    14.72000027   8.00000000  48.63999939
C    16.10999870   7.99000025  48.57999802
C     6.12999964   7.13999987  49.26000214
H     5.77376032   7.56036282  48.31953049
H    10.62999916   7.53000021  46.98999786
H    11.87999916   8.64000034  51.68000031
H     9.26999950   8.63000011  52.25000000
H     7.05999947   8.14999962  51.52999878
H     8.36000061   6.90000010  47.70999908
H    16.61000061   7.73999977  47.64999771
H     5.42000008   7.40000010  50.06000137
H     6.19000006   6.05000019  49.15999985
