96

S    16.97999954   8.97000027  57.78999710
C    19.67000008   9.18000031  57.09999847
C    18.39999962   8.80000019  56.72999954
C    18.00000000   8.36999989  55.41999817
C    19.03000069   8.19000053  54.51000214
C    20.36999893   8.50000000  54.84000397
C    21.45999908   8.31999969  53.95000076
C    22.73999977   8.64999962  54.34999847
C    22.93000031   9.32999992  55.59000015
C    21.91999817   9.67000008  56.45999908
C    20.65000153   9.18000031  56.07999802
C    16.55999947   8.27999973  55.24000168
C    15.88999939   8.71000004  56.40999603
C    14.51000023   8.71999931  56.55000305
C    24.34000015   9.73999977  55.97000122
H    24.71275711   9.23104286  56.85888672
H    19.85999870   9.39000034  58.15000153
H    18.79999924   7.90000010  53.48999786
H    21.32999802   8.01999950  52.90999985
H    23.65999985   8.43999958  53.82999802
H    22.20000076  10.07999992  57.42000198
H    14.17000008   8.97000027  57.55000305
H    24.89999962   9.51000023  55.05000305
H    24.30000114  10.82999992  56.14999771
S    13.26000023   7.32999992  53.06999969
C    10.59999943   7.07000017  53.94000244
C    11.87999916   7.53000021  54.15999985
C    12.28999996   8.25000000  55.33000183
C    11.30000019   8.56000042  56.25000000
C     9.96000004   8.15999985  56.04000092
C     8.98999977   8.26000023  57.08000183
C     7.67000008   7.88000011  57.01000214
C     7.36999989   7.17999983  55.81999969
C     8.25000000   6.90999985  54.79999924
C     9.59000015   7.39000034  54.87999725
C    13.73000050   8.39999962  55.43000031
C    14.40000057   8.01999950  54.23999786
C    15.77999973   7.95000029  54.12000275
C     5.92000008   6.78999996  55.58000183
H     5.48569393   7.40230036  54.78970718
H    10.25000000   6.63000011  53.00000000
H    11.57999992   8.80000019  57.27000427
H     9.32999992   8.88000011  57.90000153
H     6.94999981   8.38000011  57.65999603
H     8.02999973   6.23000050  53.97999573
H    16.26000023   7.53000021  53.23999786
H     5.40000010   6.91999960  56.53999710
H     5.96000004   5.72000027  55.38000107
S    13.82999992   5.10999966  50.18000031
C    11.16000080   4.67000008  50.81999969
C    12.48000050   4.50000000  51.14999771
C    12.81999969   4.01999998  52.44999695
C    11.84999943   3.61000013  53.34999847
C    10.47999954   3.68000007  53.01000214
C     9.46000004   3.25000000  53.90999603
C     8.14999962   3.35999990  53.48999786
C     7.78999996   4.05000019  52.29999924
C     8.78000069   4.44999981  51.43000031
C    10.14999962   4.25000000  51.72000122
C    14.25000000   4.17000008  52.69000244
C    14.88000011   4.78999996  51.58000183
C    16.21999931   5.14999962  51.52999878
C     6.32999992   4.42000008  52.15999985
H     5.94403076   4.03403091  51.21651840
H    10.82999992   5.13999987  49.88999939
H    12.18000031   3.40000010  54.36000061
H     9.72000027   2.84999990  54.87999725
H     7.35000038   3.07999992  54.16999817
H     8.50000000   4.94999981  50.51000214
H    16.56999969   5.79999971  50.73999786
H     5.66999960   4.09000015  52.97999954
H     6.30000019   5.51999998  52.22999954
S    17.67000008   3.75999975  54.91000366
C    20.28000069   4.55999994  54.27000046
C    18.94000053   4.56999969  53.95999908
C    18.46999931   5.12000036  52.72999573
C    19.37999916   5.72000027  51.88000107
C    20.76000023   5.59000015  52.15000153
C    21.63999939   6.07999992  51.14999771
C    23.00000000   6.09000015  51.38999939
C    23.54999924   5.51999998  52.56999969
C    22.67999840   5.01999950  53.52000427
C    21.27000046   5.05000019  53.37999725
C    17.04000092   4.86000013  52.63000107
C    16.42000008   4.17000008  53.70999908
C    15.06999969   3.84999990  53.77999878
C    25.05000114   5.49000025  52.68000031
H    25.40478706   5.62481928  53.70178986
H    20.62000084   4.03999996  55.15999603
H    18.98999977   6.26999950  51.03000259
H    21.22999954   6.53999996  50.25000000
H    23.59000015   6.53999996  50.59999847
H    22.84000015   4.56999969  54.50000000
H    14.68000031   3.40000010  54.68999863
H    25.71000099   6.05999994  52.01000214
H    25.32999992   4.46999979  52.41000366
