96

S    17.15999985   8.25000000  58.48999786
C    19.81999969   8.30999947  57.87000275
C    18.55999947   7.96000004  57.43000031
C    18.19000053   7.67000008  56.07999802
C    19.23999977   7.46999979  55.20000076
C    20.59000015   7.75000000  55.52999878
C    21.61999893   7.82999992  54.55999756
C    22.93000031   8.13000011  54.86999893
C    23.16999817   8.47999954  56.22000122
C    22.17000008   8.59000015  57.15999985
C    20.81999969   8.21000004  56.88000107
C    16.73999977   7.69000006  55.94999695
C    16.03999901   8.05999947  57.11999893
C    14.65000057   8.14000034  57.12999725
C    24.56999969   8.80000019  56.68000031
H    24.91634369   8.13558674  57.47164536
H    19.93999863   8.73000050  58.86000061
H    18.94000053   7.27999973  54.16999817
H    21.34000015   7.31999969  53.64999771
H    23.68999863   7.94000053  54.10999680
H    22.46000099   8.90999985  58.15999985
H    14.11999893   8.19000053  58.08000183
H    25.27000046   8.93000031  55.84000015
H    24.61000061   9.81999969  57.08000183
S    13.55999947   7.22000027  53.44999695
C    10.85000038   7.26000023  53.95999908
C    12.11999989   7.40999985  54.47000122
C    12.46999931   7.72000027  55.81999969
C    11.39000034   7.83999968  56.68000031
C    10.07999992   7.69999981  56.18000031
C     8.98999977   7.97999954  57.05999756
C     7.69999981   7.73999977  56.66999817
C     7.40000010   7.18999958  55.38999939
C     8.39999962   6.98000002  54.47000122
C     9.73999977   7.30000019  54.84000397
C    13.90999985   7.85000038  55.97999954
C    14.65000057   7.51999950  54.81999969
C    16.03000069   7.31999969  54.79999924
C     6.05000019   6.53999996  55.18000031
H     5.35154724   7.21707201  54.68823242
H    10.75000000   7.03999996  52.90000153
H    11.63000011   8.10999966  57.70999908
H     9.18000031   8.14000034  58.11999893
H     6.93000031   7.76999998  57.43000031
H     8.30999947   6.57000017  53.47000122
H    16.54999924   6.89000034  53.95999908
H     5.66999960   6.23000050  56.17000198
H     6.15999985   5.69999981  54.48999786
S    17.21999931   8.92000008  52.12999725
C    19.90999985   8.85999966  51.63000107
C    18.65999985   8.52000046  51.18000031
C    18.36000061   8.05000019  49.85000229
C    19.44000053   7.95000029  48.99000168
C    20.72000122   8.39999962  49.38999939
C    21.75000000   8.43000031  48.40999985
C    23.02999878   8.82000065  48.74000168
C    23.31000137   9.22000027  50.06999969
C    22.34000015   9.21000004  51.04000092
C    20.98999977   8.89000034  50.72000122
C    16.93000031   8.03999996  49.61999893
C    16.20000076   8.55000019  50.72999954
C    14.81999969   8.71999931  50.73999786
C    24.71999931   9.63000011  50.44000244
H    25.19035721   8.91021156  51.10990524
H    20.03000069   8.96000004  52.70999908
H    19.37000084   7.72000027  47.93000031
H    21.59000015   7.96000004  47.44999695
H    23.72999954   8.89999962  47.90999985
H    22.57999802   9.42000008  52.08000183
H    14.27999973   8.89999962  51.66999817
H    25.42000008   9.85000038  49.61999893
H    24.54999924  10.59999943  50.90999985
S    13.73000050   7.46000004  47.15999985
C    11.03000069   7.21000004  47.84000015
C    12.28999996   7.64999962  48.18000031
C    12.64000034   8.27999973  49.41999817
C    11.56999969   8.45000076  50.27999878
C    10.25000000   8.11999989  49.91000366
C     9.19000053   8.26000023  50.86000061
C     7.86999989   8.00000000  50.59999847
C     7.59999990   7.23000002  49.43999863
C     8.60000038   6.90000010  48.55999756
C     9.92000008   7.40999985  48.69999695
C    14.07999992   8.34999943  49.61000061
C    14.81999969   7.92000008  48.47999954
C    16.21000099   7.79999971  48.44999695
C     6.19999981   6.75000000  49.15000153
H     5.73831701   7.35373926  48.36869049
H    10.93000031   6.70000029  46.88000107
H    11.78999996   8.82999992  51.26999664
H     9.44999981   8.52999973  51.88000107
H     7.09999990   8.23000050  51.32999802
H     8.32999992   6.25999975  47.71999741
H    16.72999954   7.57000017  47.51999664
H     5.60999966   6.76999998  50.07999802
H     6.24000025   5.73000002  48.73000336
