96

S    17.34000015   8.96000004  58.27999878
C    20.06999969   8.84000015  57.68000031
C    18.77000046   8.56999969  57.30999756
C    18.44000053   8.25000000  55.94999695
C    19.45999908   8.01999950  55.04000092
C    20.81000137   8.27999973  55.38000107
C    21.88999939   8.18000031  54.45999908
C    23.19000053   8.47999954  54.79000092
C    23.46999931   8.97999954  56.09000397
C    22.43000031   9.15000057  56.97999954
C    21.09999847   8.73999977  56.70999908
C    17.00000000   8.22000027  55.76000214
C    16.27000046   8.61999989  56.90999985
C    14.88000011   8.60999966  56.97999954
C    24.93999863   9.19000053  56.37000275
H    25.36125374   8.50456810  57.10541153
H    20.34000015   9.15999985  58.68000031
H    19.25000000   7.63000011  54.05000305
H    21.64999962   7.85000038  53.44999695
H    23.97999954   8.28999996  54.06999969
H    22.56000137   9.63999939  57.94000244
H    14.32999992   8.71999931  57.90999985
H    25.56999969   9.17000008  55.47999954
H    25.03000069  10.21000004  56.77000046
S    13.82999992   7.40000010  53.29999924
C    11.13000011   7.17000008  54.01000214
C    12.38999939   7.63000011  54.31000137
C    12.76000023   8.18000031  55.58000183
C    11.72000027   8.27999973  56.47999573
C    10.36999893   7.94000053  56.23000336
C     9.28999996   8.11999989  57.14000320
C     7.96999979   7.97999954  56.79000092
C     7.69000006   7.48000050  55.48999786
C     8.69999981   7.16000032  54.61000061
C    10.06999969   7.40999985  54.92000198
C    14.19999981   8.32999992  55.79000092
C    14.88999939   7.96000004  54.61000061
C    16.27000046   7.82999992  54.62999725
C     6.26999950   7.03000021  55.22999573
H     5.80741024   7.64915800  54.46139145
H    10.86999989   6.61000013  53.11999893
H    11.80999947   8.59000015  57.51999664
H     9.51000023   8.42000008  58.15999985
H     7.17000008   8.00000000  57.52999878
H     8.36000061   6.67999983  53.69999695
H    16.79999924   7.44000006  53.75999832
H     5.79999971   7.03000021  56.22000122
H     6.32999992   5.97000027  54.94999695
S    13.96999931   5.09000015  50.21999741
C    11.25000000   4.82999992  51.03000259
C    12.60000038   4.61999989  51.24000168
C    13.05999947   4.11999989  52.50000000
C    12.13999939   3.61000013  53.39000320
C    10.75000000   3.71000004  53.15000153
C     9.76000023   3.09999990  53.96999741
C     8.39999962   3.19999981  53.75000000
C     7.96999979   3.96000004  52.63000107
C     8.88000011   4.50000000  51.75000000
C    10.27999973   4.34999990  51.95000076
C    14.51000023   4.07999992  52.61000061
C    15.11999989   4.77999973  51.53999710
C    16.45000076   5.18000031  51.59000015
C     6.53999996   4.33999968  52.36000061
H     6.12837601   3.88579416  51.45868683
H    10.85000038   5.36999989  50.17000198
H    12.55000019   2.94999981  54.15000153
H    10.13000011   2.56999993  54.84000397
H     7.62000036   2.79999995  54.38000107
H     8.60000038   5.12000036  50.90000153
H    16.90000153   5.72000027  50.77000046
H     5.93999958   4.13000011  53.26000214
H     6.44999981   5.42999983  52.25000000
S    17.78000069   3.52999973  54.92000198
C    20.48999977   4.32000017  54.38999939
C    19.13999939   4.36999989  54.13000107
C    18.68000031   5.01999950  52.94000244
C    19.61000061   5.46000004  52.01000214
C    20.98999977   5.38999987  52.34000397
C    21.94000053   5.88999987  51.39999771
C    23.23999786   5.46999979  51.49000168
C    23.75000000   4.76000023  52.62000275
C    22.89999962   4.46999979  53.66000366
C    21.52000046   4.76000023  53.52000427
C    17.27000046   4.80999994  52.67000198
C    16.62999916   4.02999973  53.66000366
C    15.31000042   3.60000014  53.66000366
C    25.22999954   4.46999979  52.77000046
H    25.61411476   4.74741697  53.75162888
H    20.86000061   3.84999990  55.28999710
H    19.26000023   5.79999971  51.04000092
H    21.54000092   6.38000011  50.52000046
H    23.90999985   5.75999975  50.68999863
H    23.19000053   3.76999998  54.43999863
H    14.91000080   3.10999990  54.54000092
H    25.79000092   4.84000015  51.90000153
H    25.35000038   3.38000011  52.77000046
