96

S    16.84000015   9.04999924  57.88999939
C    19.55000114   8.93000031  57.22000122
C    18.25000000   8.61999989  56.90000153
C    17.81999969   8.19000053  55.61000061
C    18.81000137   7.76000023  54.73999786
C    20.17999840   8.00000000  54.95999908
C    21.17000198   7.68000031  53.99000168
C    22.46000099   8.06999969  54.29000092
C    22.77000046   8.76999950  55.48999786
C    21.81999969   9.11999989  56.42000198
C    20.48000145   8.71999931  56.17000198
C    16.38000107   8.19999981  55.43000031
C    15.72000027   8.76999950  56.53999710
C    14.32999992   8.82000065  56.59000015
C    24.21999931   9.13000011  55.70999908
H    24.69391251   8.47218323  56.43854904
H    19.86999893   9.48999977  58.09999847
H    18.46999931   7.03999996  53.99000168
H    21.00000000   7.16000032  53.04999924
H    23.31999969   7.82999992  53.67000198
H    22.06999969   9.64999962  57.32999802
H    13.80000019   9.19999981  57.44999695
H    24.89000130   8.98999977  54.85000229
H    24.41999817  10.17000008  56.00000000
S    13.15000057   7.13000011  53.26000214
C    10.43000031   6.98000002  54.05000305
C    11.71000004   7.44000006  54.25000000
C    12.09000015   8.17000008  55.43000031
C    11.11999989   8.45000076  56.37000275
C     9.78999996   8.00000000  56.22000122
C     8.73999977   8.15999985  57.16999817
C     7.46999979   7.64999962  57.02999878
C     7.09999990   7.17999983  55.73999786
C     8.05999947   7.04999971  54.75000000
C     9.43000031   7.32999992  55.00000000
C    13.53000069   8.36000061  55.54000092
C    14.26000023   7.88999987  54.41999817
C    15.64000034   7.90000010  54.27000046
C     5.69000006   6.76999998  55.38000107
H     5.35624504   7.29548645  54.48525620
H    10.17000008   6.34999990  53.20999908
H    11.32999992   8.89999962  57.34000397
H     9.11000061   8.39999962  58.16999817
H     6.84000015   7.60999966  57.90000153
H     7.76999998   6.67999983  53.76999664
H    16.07999992   7.51999950  53.34999847
H     4.94999981   6.94000006  56.18000031
H     5.69999981   5.69999981  55.15999603
S    17.52000046   9.32999992  52.05999756
C    20.25000000   9.42000008  51.29000092
C    18.96000099   9.00000000  51.06999969
C    18.63999939   8.28999996  49.86999893
C    19.64999962   7.90000010  49.01000214
C    21.00000000   8.28999996  49.20000076
C    22.10000038   8.18000031  48.30999756
C    23.38999939   8.47000027  48.69999695
C    23.65999985   9.10000038  49.93999863
C    22.60000038   9.43000031  50.73999786
C    21.28000069   9.02000046  50.40999985
C    17.19000053   8.27000046  49.68000031
C    16.44000053   8.67999935  50.80999756
C    15.06000042   8.84000015  50.81999969
C    25.03999901   9.59000015  50.31000137
H    25.45071793   9.04473686  51.15976334
H    20.50000000   9.94999981  52.21000290
H    19.42000008   7.50999975  48.02000046
H    21.98999786   7.75000000  47.31999969
H    24.11000061   8.28999996  47.90000153
H    22.63000107  10.21000004  51.50000000
H    14.46000004   8.94999981  51.70999908
H    25.78000069   9.50000000  49.51000214
H    25.05000114  10.64000034  50.63999939
S    14.01000023   7.50999975  47.27000427
C    11.28999901   7.40000010  47.98999786
C    12.56000042   7.85000038  48.25000000
C    12.94999981   8.32999992  49.54000092
C    12.00000000   8.60000038  50.50000000
C    10.64000034   8.30999947  50.21999741
C     9.55000019   8.69999981  51.05999756
C     8.23999977   8.38999939  50.80999756
C     7.90999985   7.86999989  49.52999878
C     8.92000008   7.59000015  48.63999939
C    10.29999924   7.68000031  48.96999741
C    14.39000034   8.53999996  49.62999725
C    15.14000034   8.14000034  48.48999786
C    16.51000023   7.92999983  48.50999832
C     6.50000000   7.57999992  49.09000015
H     6.08782625   8.22668648  48.31539917
H    10.98000050   7.00999975  47.02000046
H    12.25999928   8.97999954  51.49000168
H     9.84000015   9.15000057  52.00000000
H     7.46000004   8.59000015  51.55000305
H     8.75000000   7.36000013  47.58999634
H    17.07999992   7.46000004  47.70999908
H     5.75999975   7.42999983  49.88999939
H     6.44000006   6.61000013  48.57999802
