96

S    17.00000000   9.06000042  58.29999924
C    19.70999908   9.36999989  57.54000092
C    18.45000076   8.85999966  57.29999924
C    18.04999924   8.34000015  56.03000259
C    19.03000069   7.94000053  55.13999939
C    20.35000038   8.36999989  55.38999939
C    21.40000153   8.10000038  54.47000122
C    22.70999908   8.42000008  54.75000000
C    23.02000046   9.10000038  55.96000290
C    22.04999924   9.46000004  56.86000061
C    20.69999886   9.15999985  56.55000305
C    16.61000061   8.14000034  55.86000061
C    15.90000057   8.47999954  57.04000092
C    14.51000023   8.43000031  57.09999847
C    24.47000122   9.44999981  56.22000122
H    25.00498962   8.91501141  57.00465012
H    19.96999931   9.72000027  58.54000092
H    18.84000015   7.36999989  54.22999954
H    21.18999863   7.55000019  53.55999756
H    23.44000053   8.32999992  53.94000244
H    22.29000092  10.03000069  57.75000000
H    13.92000008   8.85999966  57.90999985
H    25.05000114   9.36999989  55.28999710
H    24.36000061  10.53999996  56.35000229
S    13.53999996   7.44999981  53.34000015
C    10.78999996   7.44000006  53.87000275
C    12.06999969   7.65999985  54.31999969
C    12.35000038   8.01999950  55.68000031
C    11.31000042   8.34000015  56.52999878
C     9.98999977   8.01999950  56.12999725
C     8.84000015   8.10000038  56.95999908
C     7.57999992   7.76000023  56.52000046
C     7.34000015   7.13000011  55.27000046
C     8.43999958   7.00999975  54.45999908
C     9.72000027   7.53000021  54.79999924
C    13.78000069   8.05000019  55.97000122
C    14.51000023   7.71000004  54.79999924
C    15.90000057   7.64999962  54.75999832
C     5.91000032   6.94000006  54.80999756
H     5.47446489   7.71111107  54.17454910
H    10.62999916   6.98999977  52.90000153
H    11.54000092   8.67999935  57.54000092
H     8.98999977   8.38000011  58.00000000
H     6.67999983   7.72000027  57.14000320
H     8.30999947   6.69000053  53.43000031
H    16.43000031   7.40000010  53.85000229
H     5.27999973   6.88000011  55.70000076
H     5.88999987   5.96000004  54.29999924
S    13.78999901   5.07999992  50.86999893
C    11.14999962   4.90000010  51.56999969
C    12.43999958   4.50000000  51.86000061
C    12.94000053   3.88000011  53.04999924
C    12.01000023   3.38000011  53.94000244
C    10.65000057   3.60000014  53.61999893
C     9.61999989   3.02999997  54.41999817
C     8.27999973   3.05000019  54.09999847
C     7.86999989   3.77999997  52.95999908
C     8.80999947   4.44999981  52.21000290
C    10.21000004   4.35999966  52.48000336
C    14.37999916   4.03999996  53.22000122
C    14.98000050   4.71000004  52.12999725
C    16.34000015   4.99000025  52.05999756
C     6.40999985   3.68000007  52.61000061
H     6.15461349   4.14820910  51.65938950
H    10.93000031   5.42999983  50.65000153
H    12.35000038   2.73000002  54.73999786
H     9.85000038   2.45000005  55.31000137
H     7.55999994   2.38999987  54.58000183
H     8.65999985   4.78999996  51.18999863
H    16.72999954   5.36999989  51.11999893
H     6.17000008   2.61000013  52.50999832
H     5.89999962   4.11999989  53.47999954
S    17.78000069   3.65000010  55.48999786
C    20.46999931   4.11000013  54.77000427
C    19.11999893   4.26999998  54.51000214
C    18.60000038   4.86000013  53.31999969
C    19.54000092   5.32999992  52.42000198
C    20.93000031   5.21000004  52.67000198
C    21.80000114   5.65000010  51.63000107
C    23.15000153   5.50000000  51.79999924
C    23.71000099   4.92999983  52.97999954
C    22.85000038   4.46000004  53.94000244
C    21.44000053   4.63000011  53.88000107
C    17.17000008   4.65999985  53.13999939
C    16.56999969   4.03999996  54.26000214
C    15.21999931   3.68000007  54.27999878
C    25.20000076   4.67000008  53.04000092
H    25.59738731   4.69128847  54.05475616
H    20.81999969   3.42000008  55.52999878
H    19.14999962   5.40999985  51.40999603
H    21.35999870   6.05000019  50.70999908
H    23.80000114   5.63000011  50.93999863
H    23.26000023   3.86000013  54.75000000
H    14.88999939   3.10999990  55.13999939
H    25.59000015   5.42999983  52.36000061
H    25.34000015   3.74000025  52.45999908
