96

S    17.13000107   8.92000008  58.02999878
C    19.84000015   8.89999962  57.38999939
C    18.54999924   8.56999969  57.02999878
C    18.22999954   8.10000038  55.72000122
C    19.25000000   8.01999950  54.79000092
C    20.55999947   8.46000004  55.11000061
C    21.63999939   8.39999962  54.19000244
C    22.93999863   8.76999950  54.47000122
C    23.22999954   9.15999985  55.79999924
C    22.25000000   9.15000057  56.77000046
C    20.89999962   8.85000038  56.45999908
C    16.79000092   7.97999954  55.54999924
C    16.07999992   8.43999958  56.69000244
C    14.70999908   8.67999935  56.70000076
C    24.70000076   9.44000053  56.05999756
H    25.12752342   8.73458576  56.77253723
H    19.88999939   9.23999977  58.43000031
H    19.09000015   7.73000002  53.75999832
H    21.60000038   7.96000004  53.20000076
H    23.75000000   8.55000019  53.79000092
H    22.52000046   9.51000023  57.76000214
H    14.27000046   8.96000004  57.64999771
H    25.31999969   9.42000008  55.15999603
H    24.67000008  10.43000031  56.53999710
S    13.56999969   7.40999985  53.09999847
C    10.93000031   6.97000027  53.95000076
C    12.17000008   7.51999950  54.18000031
C    12.53000069   8.09000015  55.45000076
C    11.52999973   8.19999981  56.39999771
C    10.19999981   7.81000042  56.16000366
C     9.13999939   7.95000029  57.11000061
C     7.88000011   7.46000004  56.88999939
C     7.63999987   6.93000031  55.59999847
C     8.59000015   6.69000053  54.64000320
C     9.92000008   7.11000013  54.93000031
C    13.96000004   8.36000061  55.56000137
C    14.65000057   7.88000011  54.41999817
C    16.03999901   7.73999977  54.38999939
C     6.19000006   6.63000011  55.27000046
H     5.82010221   7.12793875  54.37371063
H    10.72999954   6.57000017  52.95999908
H    11.89000034   8.60999966  57.34000397
H     9.39999962   8.43999958  58.04000092
H     7.03999996   7.75000000  57.52999878
H     8.38000011   6.37000036  53.61999893
H    16.52000046   7.53000021  53.44999695
H     5.55000019   6.76999998  56.13999939
H     6.30999994   5.55000019  55.13999939
S    13.94999981   5.55999994  50.18000031
C    11.33999920   4.77999973  50.91999817
C    12.69000053   4.81999969  51.18999863
C    13.20000076   4.11999989  52.32999802
C    12.35999966   3.48000002  53.22999954
C    10.97000027   3.49000001  52.98999786
C    10.07999992   2.96999979  53.97999573
C     8.71999931   2.99000001  53.81000137
C     8.19999981   3.52999973  52.60000229
C     9.04999924   4.00000000  51.63000107
C    10.46000004   4.07999992  51.77999878
C    14.60000038   4.42999983  52.52999878
C    15.15999985   5.05000019  51.38000107
C    16.51000023   5.38000011  51.36000061
C     6.71999979   3.79999995  52.47000122
H     6.20227289   3.41702390  51.59057617
H    11.02000046   5.15999985  49.94999695
H    12.68000031   3.14000010  54.20999908
H    10.47999954   2.52999997  54.88999939
H     8.00000000   2.64999986  54.54999924
H     8.67000008   4.61000013  50.80999756
H    16.86000061   6.05999994  50.59000015
H     6.21000004   3.38000011  53.34000015
H     6.51000023   4.86999989  52.56000137
S    17.94000053   3.74000025  54.75000000
C    20.56999969   4.33999968  53.99000168
C    19.22999954   4.42999983  53.73000336
C    18.71999931   5.03999996  52.54000092
C    19.62000084   5.52999973  51.60999680
C    21.02000046   5.49000025  51.81000137
C    21.96000099   6.00000000  50.86999893
C    23.26999855   6.19999981  51.22000122
C    23.71000099   5.59000015  52.43000031
C    22.86999893   4.96000004  53.30999756
C    21.47000122   4.88999987  53.04000092
C    17.27000046   4.96000004  52.45999908
C    16.72999954   4.26999998  53.56999969
C    15.36999893   3.95000005  53.60000229
C    25.15999985   5.78000021  52.84999847
H    25.44429398   5.12612486  53.67445374
H    21.04000092   3.89999986  54.86999893
H    19.23999977   5.86999989  50.63999939
H    21.53000069   6.38999987  49.94999695
H    23.97000122   6.60000038  50.50000000
H    23.25000000   4.55999994  54.23999786
H    14.96000099   3.35000014  54.40000153
H    25.30999947   6.81999969  53.13999939
H    25.81999969   5.55000019  52.00000000
