96

S    16.61000061   8.88000011  58.18999863
C    19.32999992   9.04999924  57.56000137
C    18.04999924   8.69999981  57.18000031
C    17.78000069   8.15999985  55.87999725
C    18.79999924   7.94000053  54.98000336
C    20.10000038   8.36999989  55.33000183
C    21.18999863   8.14999962  54.43000031
C    22.46999931   8.47000027  54.81999969
C    22.78000069   8.92000008  56.12999725
C    21.73999977   9.18000031  57.00000000
C    20.38999939   8.92000008  56.63000107
C    16.34000015   8.14000034  55.65000153
C    15.59000015   8.48999977  56.79000092
C    14.21000004   8.69999981  56.79999924
C    24.18000031   9.30999947  56.53999710
H    24.66905785   8.54451847  57.14245987
H    19.47000122   9.38000011  58.57999802
H    18.61999893   7.39000034  54.06000137
H    20.98999977   7.85000038  53.40999985
H    23.31000137   8.19999981  54.19000244
H    21.90000153   9.48999977  58.02000046
H    13.60999966   9.13000011  57.60000229
H    24.84000015   9.44999981  55.66999817
H    24.11999893  10.26999950  57.04999924
S    13.09999943   7.63999987  53.15999985
C    10.39999962   7.39000034  53.94000244
C    11.69000053   7.76000023  54.22999954
C    12.06999969   8.15999985  55.54999924
C    11.07999992   8.28999996  56.51000214
C     9.72000027   8.01000023  56.24000168
C     8.64000034   8.09000015  57.15999985
C     7.31999969   7.88000011  56.84999847
C     7.02000046   7.40000010  55.54999924
C     8.03999996   7.11999989  54.68000031
C     9.39000034   7.50999975  54.93000031
C    13.50999928   8.26000023  55.66999817
C    14.22000027   7.82000017  54.52999878
C    15.60999966   7.73999977  54.52000046
C     5.59999990   7.04999971  55.15999603
H     5.21495581   7.80582666  54.47547531
H    10.21000004   6.85999966  53.01000214
H    11.56000042   8.61999989  57.43000031
H     8.92000008   8.43000031  58.15999985
H     6.53999996   8.19999981  57.52999878
H     7.90999985   6.56000042  53.75000000
H    16.04999924   7.31999969  53.61999893
H     4.96000004   6.96000004  56.04000092
H     5.52999973   6.10000038  54.61000061
S    13.35999966   5.38000011  50.40999985
C    10.72999954   5.00999975  51.12999725
C    12.05000019   4.84000015  51.47999573
C    12.44999981   4.02999973  52.60000229
C    11.43000031   3.47000003  53.34999847
C    10.05000019   3.68999982  53.11000061
C     9.02999973   3.14000010  53.93000031
C     7.69999981   3.38000011  53.68999863
C     7.36000013   4.05999994  52.49000168
C     8.32999992   4.38000011  51.56999969
C     9.72000027   4.32999992  51.86000061
C    13.89000034   4.18000031  52.76000214
C    14.50000000   4.79999971  51.63999939
C    15.80999947   5.26000023  51.72999954
C     5.92999983   4.48000002  52.23999786
H     5.60267115   4.13843966  51.25801468
H    10.44999981   5.51000023  50.20999908
H    11.77000046   2.79000020  54.13000107
H     9.39999962   2.50000000  54.72999954
H     6.94000006   2.96999979  54.34999847
H     8.02999973   4.99000025  50.72000122
H    16.28000069   5.77000046  50.90000153
H     5.23000002   4.32999992  53.06999969
H     6.03999996   5.56999969  52.11999893
S    17.11000061   3.63999987  55.20999908
C    19.73999977   4.30999994  54.78000259
C    18.44000053   4.44000006  54.34999847
C    18.02999878   5.00000000  53.09999847
C    19.04999924   5.51999998  52.31999969
C    20.40999985   5.36999989  52.68000031
C    21.37000084   5.77000046  51.70999908
C    22.70999908   5.58000040  51.93000031
C    23.08000183   5.03000021  53.18999863
C    22.18000031   4.51999998  54.09999847
C    20.79000092   4.72000027  53.90999603
C    16.61999893   4.80999994  52.78999710
C    16.04999924   4.05999994  53.85000229
C    14.68999958   3.77999997  53.82999802
C    24.56999969   4.84000015  53.34000015
H    24.96796989   4.94659948  54.34913635
H    19.95000076   3.72000003  55.66999817
H    18.78999901   5.96000004  51.36000061
H    20.95000076   6.07999992  50.76000214
H    23.42000008   5.82999992  51.14999771
H    22.43999863   3.98000002  55.00999832
H    14.22000027   3.58000016  54.79000092
H    25.07999802   5.47999954  52.61000061
H    24.71999931   3.79999995  53.02999878
