96

S    16.63999939   8.89999962  58.06999969
C    19.31999969   8.57999992  57.56000137
C    18.02999878   8.36000061  57.11999893
C    17.75000000   7.88999987  55.79999924
C    18.79999924   7.57000017  54.95999908
C    20.13999939   7.82999992  55.35999680
C    21.21000099   7.76999998  54.41999817
C    22.46999931   8.17000008  54.77000427
C    22.72999954   8.75000000  56.04999924
C    21.68999863   8.89999962  56.93999863
C    20.39999962   8.36999989  56.65999985
C    16.31000137   7.88000011  55.61000061
C    15.59999943   8.39999962  56.72000122
C    14.22999954   8.60999966  56.77999878
C    24.09000015   9.35000038  56.29000092
H    24.58080482   8.78095150  57.07955551
H    19.45000076   9.11999989  58.48999786
H    18.63999939   7.03000021  54.02999878
H    21.00000000   7.48000050  53.39000320
H    23.31999969   8.10000038  54.09000015
H    21.97000122   9.43000031  57.84999847
H    13.71000099   8.78999996  57.70999908
H    24.75000000   9.39000034  55.40999985
H    23.95999908  10.34999943  56.72000122
S    13.19000053   7.17000008  53.18000031
C    10.51000023   7.00000000  53.95000076
C    11.78999996   7.40999985  54.23999786
C    12.10000038   7.94000053  55.54000092
C    11.07999992   8.10999966  56.45000076
C     9.73999977   7.73000002  56.18999863
C     8.67999935   7.85000038  57.11999893
C     7.40999985   7.42000008  56.77999878
C     7.11000013   6.96000004  55.47999954
C     8.14999962   6.74000025  54.59000015
C     9.48000050   7.09999990  54.92000198
C    13.53999996   8.14000034  55.65000153
C    14.25000000   7.73000002  54.48999786
C    15.62000084   7.51999950  54.45000076
C     5.78000021   6.30999994  55.19000244
H     5.41633224   6.58096838  54.19882965
H    10.24000072   6.63000011  52.97000122
H    11.31999969   8.36999989  57.48000336
H     8.90999985   8.23999977  58.11000061
H     6.57999992   7.32999992  57.47000122
H     7.82999992   6.35999966  53.62999725
H    16.18000031   7.14999962  53.60000229
H     5.12000036   6.63000011  56.00000000
H     5.82999992   5.21000004  55.24000168
S    13.99000072   5.19999981  50.43000031
C    11.31999969   4.55999994  50.96000290
C    12.63000011   4.55999994  51.37000275
C    13.12999916   3.91999984  52.55000305
C    12.18999958   3.42999983  53.43999863
C    10.80999947   3.54999995  53.16999817
C     9.86999989   3.09999990  54.13999939
C     8.52000046   3.07000017  53.83999634
C     8.06999969   3.60000014  52.61000061
C     8.97999954   4.09999990  51.70000076
C    10.39000034   4.00000000  51.86999893
C    14.55000019   4.15999985  52.77999878
C    15.18000031   4.74000025  51.65999985
C    16.54999924   4.97000027  51.59000015
C     6.61000013   3.35000014  52.29999924
H     6.27554226   3.68445802  51.31797409
H    11.03999996   5.13000011  50.06999969
H    12.58999920   3.00000000  54.34999847
H    10.29999924   2.66000009  55.04000092
H     7.86000013   2.64999986  54.59000015
H     8.59000015   4.63999987  50.84000015
H    17.05000114   5.36000013  50.70999908
H     6.42000008   2.27999997  52.38999939
H     5.96000004   3.95000005  52.95999908
S    17.94000053   3.68000007  55.12000275
C    20.59999847   4.18000031  54.34999847
C    19.26000023   4.21999979  54.06999969
C    18.72999954   4.73000002  52.84000015
C    19.60000038   5.26999998  51.90999985
C    21.00000000   5.23000002  52.14000320
C    21.90999985   5.86000013  51.24000168
C    23.22999954   6.03999996  51.56000137
C    23.71999931   5.58000040  52.81000137
C    22.88000107   4.90999985  53.67000198
C    21.48999977   4.75000000  53.40000153
C    17.28999901   4.55000019  52.70999908
C    16.70999908   4.00000000  53.88000107
C    15.34000015   3.79999995  53.88000107
C    25.09000015   6.00000000  53.29000092
H    25.41150856   5.46415043  54.18308258
H    20.98999977   3.81999993  55.30000305
H    19.19999886   5.73000002  51.00999832
H    21.38999939   6.19000006  50.34000015
H    23.81999969   6.58999968  50.83000183
H    23.18000031   4.76000023  54.69999695
H    15.00000000   3.28999996  54.78000259
H    25.15000153   7.07999992  53.47999954
H    25.79999924   5.73000002  52.50000000
