96

S    16.45000076   8.82000065  58.22000122
C    19.18000031   8.85999966  57.61000061
C    17.90999985   8.43999958  57.29000092
C    17.61000061   7.92999983  55.98999786
C    18.68000031   7.86000013  55.11000061
C    20.02000046   8.21000004  55.40999985
C    21.04999924   7.96000004  54.45999908
C    22.27999878   8.47000027  54.79000092
C    22.56999969   9.15000057  56.00999832
C    21.55999947   9.31999969  56.93000031
C    20.25000000   8.82999992  56.68000031
C    16.18000031   7.85000038  55.70999908
C    15.47999954   8.50000000  56.77000046
C    14.14999962   8.88000011  56.68000031
C    23.95999908   9.67000008  56.31000137
H    24.47154427   8.93820667  56.93522263
H    19.37999916   9.19000053  58.62999725
H    18.48999977   7.40000010  54.13999939
H    20.81999969   7.53999996  53.47999954
H    23.01000214   8.40999985  53.99000168
H    21.78999901   9.72999954  57.90999985
H    13.71000099   9.34000015  57.56000137
H    24.47000122   9.86999989  55.35999680
H    23.98999977  10.65999985  56.77999878
S    13.02000046   7.26999998  53.20999908
C    10.31000042   7.13999987  53.95000076
C    11.57999992   7.62000036  54.19000244
C    11.95000076   8.27999973  55.40000153
C    10.95999908   8.50000000  56.35000229
C     9.67000008   7.95000029  56.13999939
C     8.63000011   8.00000000  57.11999893
C     7.34000015   7.65999985  56.79000092
C     6.96000004   7.23999977  55.47999954
C     7.95000029   6.96000004  54.56999969
C     9.28999996   7.30000019  54.91000366
C    13.38000107   8.40999985  55.61000061
C    14.07999992   7.83999968  54.52000046
C    15.44000053   7.53999996  54.56999969
C     5.52999973   6.84999990  55.18000031
H     5.18274927   7.31772518  54.25872421
H    10.03000069   6.65000010  53.02000046
H    11.25000000   8.94999981  57.29000092
H     8.85000038   8.42000008  58.09000015
H     6.56000042   7.71000004  57.54000092
H     7.78999996   6.56000042  53.56999969
H    15.93000031   7.25000000  53.63999939
H     4.84000015   7.11999989  55.97999954
H     5.46999979   5.77000046  54.98000336
S    13.71000099   5.49000025  50.28999710
C    11.02000046   4.94999981  50.97000122
C    12.36999989   4.84000015  51.25000000
C    12.92000008   4.17000008  52.38999939
C    12.06999969   3.58999991  53.31999969
C    10.67999935   3.73000002  53.09999847
C     9.78999996   3.16000009  54.06000137
C     8.43999958   3.22000003  53.81999969
C     7.90999985   3.86999989  52.67000198
C     8.73999977   4.51000023  51.77999878
C    10.14999962   4.38000011  51.93000031
C    14.34999943   4.33999968  52.56999969
C    14.93999958   5.07000017  51.50000000
C    16.31000137   5.32000017  51.58000183
C     6.42000008   4.05999994  52.52999878
H     6.07777596   3.73916531  51.54610443
H    10.64000034   5.59999990  50.19000244
H    12.58999920   2.99000001  54.06000137
H    10.19000053   2.82000017  55.00999832
H     7.79999971   2.69000006  54.52000046
H     8.26000023   5.15999985  51.04999924
H    16.77999878   5.75000000  50.70000076
H     5.86000013   3.51999998  53.29999924
H     6.15999985   5.12000036  52.61000061
S    17.59000015   3.81999993  55.06000137
C    20.31999969   4.26000023  54.40999985
C    18.97999954   4.38000011  54.10999680
C    18.50000000   4.97000027  52.88999939
C    19.40000153   5.42000008  51.93999863
C    20.78000069   5.32999992  52.22000122
C    21.76000214   5.71000004  51.25999832
C    23.09999847   5.73000002  51.58000183
C    23.54000092   5.29999971  52.85999680
C    22.63000107   4.81999969  53.76999664
C    21.24000168   4.81999969  53.48999786
C    17.05999947   4.92000008  52.70000076
C    16.44000053   4.23000002  53.76999664
C    15.08999920   3.89999986  53.67000198
C    24.86999893   5.84000015  53.31999969
H    25.27661514   5.17657185  54.08329773
H    20.63999939   3.81000018  55.34000015
H    18.98999977   5.75000000  50.98999786
H    21.44000053   6.34999990  50.44000244
H    23.69999886   6.42000008  51.00000000
H    22.98999977   4.55000019  54.75999832
H    14.73000050   3.40999985  54.56999969
H    24.71999931   6.86999989  53.67000198
H    25.50000000   5.96000004  52.43000031
