96

S    16.69000053   8.90999985  58.00000000
C    19.42000008   8.80999947  57.38999939
C    18.12000084   8.50000000  57.04000092
C    17.72999954   7.95000029  55.77999878
C    18.75000000   7.73999977  54.86999893
C    20.09000015   8.09000015  55.20000076
C    21.18000031   7.75000000  54.34999847
C    22.46000099   8.10999966  54.66999817
C    22.81999969   8.82999992  55.84000015
C    21.80999947   9.03999996  56.76000214
C    20.46999931   8.69000053  56.45000076
C    16.28999901   7.79999971  55.65000153
C    15.57000065   8.36000061  56.72999954
C    14.19999981   8.57999992  56.72000122
C    24.25000000   9.22999954  56.10000229
H    24.69606972   8.58567619  56.85760880
H    19.78999901   9.19999981  58.33000183
H    18.46999931   7.37999964  53.88999939
H    21.04000092   7.40999985  53.31999969
H    23.18000031   7.72000027  53.95000076
H    22.01999855   9.50000000  57.71999741
H    13.71000099   8.96000004  57.61000061
H    24.86000061   9.04999924  55.20999908
H    24.34000015  10.31000042  56.26999664
S    13.07999992   7.04999971  53.18999863
C    10.43000031   7.22000027  53.77999878
C    11.69999981   7.59999990  54.15000153
C    12.05000019   8.13000011  55.43000031
C    11.02000046   8.51000023  56.26999664
C     9.68999958   8.19000053  55.90000153
C     8.60999966   8.36000061  56.79999924
C     7.35000038   7.97999954  56.39999771
C     7.03000021   7.21000004  55.25000000
C     8.10000038   6.89000034  54.43999863
C     9.39000034   7.42999983  54.71000290
C    13.50000000   8.13000011  55.59000015
C    14.18000031   7.53999996  54.48999786
C    15.55999947   7.40000010  54.51000214
C     5.65000010   6.65999985  54.94999695
H     5.19996309   7.19575787  54.11421585
H    10.29000092   6.65000010  52.85999680
H    11.23999977   8.92000008  57.25000000
H     8.69999981   8.73999977  57.81000137
H     6.61999989   8.28999996  57.15000153
H     7.97999954   6.17000008  53.63999939
H    16.05999947   7.09000015  53.60000229
H     5.05000019   6.91999960  55.83000183
H     5.78000021   5.58000040  54.81999969
S    13.83999920   5.07000017  50.48999786
C    11.16000080   4.61000013  51.05999756
C    12.46999931   4.33999968  51.36000061
C    12.89999962   3.65000010  52.54000092
C    11.94000053   3.14000010  53.39000320
C    10.57000065   3.32999992  53.11999893
C     9.52000046   2.82000017  53.93000031
C     8.21000004   2.92000008  53.54000092
C     7.86000013   3.75000000  52.43999863
C     8.82000065   4.28999996  51.62000275
C    10.19000053   4.07999992  51.95000076
C    14.32999992   3.81000018  52.78999710
C    14.96999931   4.48000002  51.72000122
C    16.32999992   4.76999998  51.66999817
C     6.39999962   4.00999975  52.15000153
H     5.88592768   3.44594812  51.37174988
H    10.78999996   5.15999985  50.19000244
H    12.17000008   2.61999989  54.31999969
H     9.78999996   2.28999996  54.84000397
H     7.46000004   2.50999975  54.20999908
H     8.47999954   4.92999983  50.80999756
H    16.77999878   5.31000042  50.84999847
H     5.84999990   3.84999990  53.08000183
H     6.19999981   5.07999992  52.00000000
S    17.65999985   3.30999994  55.07999802
C    20.29999924   3.98000002  54.47000122
C    18.96000099   4.11000013  54.16999817
C    18.52000046   4.63999987  52.91999817
C    19.38999939   5.27999973  52.04999924
C    20.75000000   5.19999981  52.42000198
C    21.71999931   5.73000002  51.52000046
C    23.06999969   5.55000019  51.76000214
C    23.54000092   4.88000011  52.91999817
C    22.65000153   4.35999966  53.82999802
C    21.25999832   4.51000023  53.57999802
C    17.09000015   4.39000034  52.77999878
C    16.44000053   3.73000002  53.86000061
C    15.10000038   3.38999987  53.88999939
C    25.02000046   4.65999985  53.11000061
H    25.32549286   4.72394037  54.15435791
H    20.59000015   3.51999998  55.40999985
H    19.17000008   5.71000004  51.07999802
H    21.47000122   6.15999985  50.56000137
H    23.77000046   5.82999992  50.97999954
H    22.98999977   3.75999975  54.68000031
H    14.65999985   2.87999988  54.73999786
H    25.62000084   5.42000008  52.57999802
H    25.30999947   3.65000010  52.80000305
