96

S    17.13999939   8.89000034  58.26000214
C    19.80999947   8.97000027  57.38999939
C    18.48999977   8.69000053  57.11999893
C    18.05999947   8.10000038  55.89000320
C    19.02000046   7.82999992  54.93999863
C    20.38999939   8.05000019  55.18000031
C    21.35999870   7.97999954  54.13999939
C    22.65000153   8.43000031  54.31999969
C    23.05000114   8.85999966  55.61000061
C    22.17000008   8.94999981  56.65999985
C    20.79999924   8.64000034  56.43000031
C    16.61000061   7.97999954  55.86000061
C    15.95000076   8.36999989  57.04999924
C    14.56999969   8.52999973  57.09999847
C    24.50000000   9.22000027  55.83000183
H    24.90606117   8.57172585  56.60650253
H    20.12000084   9.46000004  58.31999969
H    18.72999954   7.35000038  54.00000000
H    21.07999992   7.59000015  53.15999985
H    23.26999855   8.53999996  53.43000031
H    22.39999962   9.55000019  57.52999878
H    14.21000004   8.88000011  58.06000137
H    25.03999901   9.13999939  54.87999725
H    24.36000061  10.29000092  56.06999969
S    13.40000057   7.34000015  53.43000031
C    10.72999954   7.20000029  54.18000031
C    12.01000023   7.60999966  54.48999786
C    12.36999989   8.22000027  55.72999954
C    11.35000038   8.48999977  56.63000107
C    10.06000042   7.96000004  56.38999939
C     9.00000000   8.22000027  57.29999924
C     7.68000031   7.99000025  56.97000122
C     7.40000010   7.35000038  55.73999786
C     8.36999989   6.94000006  54.86000061
C     9.72000027   7.27999973  55.17000198
C    13.81000042   8.22000027  55.96000290
C    14.46000004   7.71000004  54.80999756
C    15.84000015   7.72000027  54.72000122
C     5.96000004   6.94000006  55.50000000
H     5.48362541   7.63678694  54.81032181
H    10.62000084   6.71999979  53.20999908
H    11.56000042   8.88000011  57.62000275
H     9.23999977   8.76000023  58.22000122
H     6.90999985   8.03999996  57.74000168
H     8.10000038   6.56000042  53.88000107
H    16.38000107   7.35000038  53.85000229
H     5.50000000   6.86999989  56.49000168
H     5.95000029   5.93999958  55.04000092
S    17.60000038   9.13000011  52.01000214
C    20.31999969   9.28999996  51.29000092
C    19.04000092   8.85999966  51.02000427
C    18.65999985   8.38999939  49.72000122
C    19.65999985   8.14000034  48.80000305
C    21.01000023   8.50000000  49.05000305
C    22.09000015   8.30999947  48.13999939
C    23.38000107   8.63000011  48.50999832
C    23.71999931   9.11000061  49.79999924
C    22.65999985   9.50000000  50.59000015
C    21.31999969   9.15000057  50.28999710
C    17.21999931   8.34000015  49.52999878
C    16.48999977   8.76000023  50.66999817
C    15.11000061   8.76999950  50.79999924
C    25.13000107   9.57999992  50.08999634
H    25.52107811   8.90450191  50.85082626
H    20.48000145   9.81000042  52.22999954
H    19.37999916   7.82999992  47.80000305
H    21.80000114   8.11999989  47.11000061
H    24.05999947   8.56000042  47.67000198
H    22.86999893  10.11999989  51.45999908
H    14.65999985   9.15000057  51.70999908
H    25.75000000   9.34000015  49.20999908
H    25.17000008  10.64000034  50.34999847
S    13.94000053   7.63999987  47.25000000
C    11.25000000   7.30999994  48.02999878
C    12.53000069   7.73999977  48.31999969
C    12.86999893   8.32999992  49.56999969
C    11.92999935   8.52999973  50.56999969
C    10.59999943   8.21000004  50.21999741
C     9.50000000   8.40999985  51.10000229
C     8.21000004   7.99000025  50.86999893
C     7.86000013   7.44999981  49.59999847
C     8.89000034   7.17999983  48.72000122
C    10.22999954   7.57999992  48.97999573
C    14.32000065   8.38999939  49.71000290
C    15.06999969   7.96999979  48.57999802
C    16.45000076   7.96000004  48.43000031
C     6.44000006   7.07000017  49.25000000
H     5.92215300   7.77937937  48.60446548
H    11.07999992   6.77999973  47.09999847
H    12.18000031   8.76000023  51.59999847
H     9.78999996   8.73999977  52.09000015
H     7.44999981   8.10999966  51.63999939
H     8.64999962   6.46000004  47.94000244
H    16.88999939   7.42000008  47.60000229
H     5.77000046   7.09000015  50.11000061
H     6.47000027   6.05000019  48.85000229
