96

S    16.93000031   8.93999958  58.16999817
C    19.65999985   8.80000019  57.48000336
C    18.34000015   8.55000019  57.18000031
C    17.94000053   8.17000008  55.86000061
C    18.96000099   7.88999987  54.95999908
C    20.31999969   8.03999996  55.31000137
C    21.40000153   7.79999971  54.40999985
C    22.72000122   7.99000025  54.75000000
C    23.09999847   8.60999966  55.97000122
C    22.10000038   8.80999947  56.88999939
C    20.73999786   8.48999977  56.60999680
C    16.51000023   8.34000015  55.65000153
C    15.80999947   8.80999947  56.79000092
C    14.42999935   8.93999958  56.88999939
C    24.47999954   9.17000008  56.20999908
H    24.95048523   8.68525600  57.06543350
H    19.88999939   9.26000023  58.43000031
H    18.76000023   7.48000050  53.97999573
H    21.11000061   7.46999979  53.41999817
H    23.46999931   7.73999977  54.01000214
H    22.29999924   9.44000053  57.76000214
H    14.07999992   9.35999966  57.81999969
H    25.22999954   9.11999989  55.40999985
H    24.30999947  10.22999954  56.45999908
S    13.20000076   7.39000034  53.50000000
C    10.52999973   7.32999992  54.27000046
C    11.82999992   7.65999985  54.59999847
C    12.18000031   8.30000019  55.83000183
C    11.21000099   8.56000042  56.77000046
C     9.88000011   8.19000053  56.45999908
C     8.78000069   8.36000061  57.35000229
C     7.49000025   8.00000000  57.04000092
C     7.14999962   7.46999979  55.76000214
C     8.14999962   7.36000013  54.82999802
C     9.50000000   7.55000019  55.21999741
C    13.61999989   8.56000042  55.81999969
C    14.32000065   8.10999966  54.66999817
C    15.70000076   7.90999985  54.59000015
C     5.79999971   6.96000004  55.31000137
H     5.34467411   7.55761480  54.52029419
H    10.25000000   6.96000004  53.29000092
H    11.46000004   8.96000004  57.75000000
H     9.13000011   8.67999935  58.33000183
H     6.71000004   8.01999950  57.78999710
H     7.85000038   7.07999992  53.81999969
H    16.10999870   7.36000013  53.75000000
H     5.15999985   6.86999989  56.19999695
H     5.98000002   5.92999983  54.97000122
S    17.56999969   9.15999985  52.04999924
C    20.22999954   9.35999966  51.37000275
C    19.00000000   8.82000065  51.05999756
C    18.61999893   8.30000019  49.78000259
C    19.63000107   8.30999947  48.83999634
C    20.94000053   8.76999950  49.12000275
C    21.96000099   8.60999966  48.13000107
C    23.21000099   9.06000042  48.46000290
C    23.54000092   9.61999989  49.72000122
C    22.57999802   9.81000042  50.68000031
C    21.27000046   9.31999969  50.40999985
C    17.18000031   8.22000027  49.59999847
C    16.46999931   8.69999981  50.72999954
C    15.08999920   8.84000015  50.86999893
C    25.00000000   9.92000008  49.98000336
H    25.41953087   9.34403419  50.80484009
H    20.35000038   9.75000000  52.36999893
H    19.47000122   7.76000023  47.90999985
H    21.86000061   8.05000019  47.21000290
H    24.03000069   8.92000008  47.75000000
H    22.89999962  10.01999950  51.70000076
H    14.65999985   9.06999969  51.84000015
H    25.52000046   9.67000008  49.05000305
H    25.12000084  11.00000000  50.14999771
S    13.86000061   7.90999985  47.21000290
C    11.11999989   7.88000011  47.95999908
C    12.43999958   8.14000034  48.23999786
C    12.88000011   8.57999992  49.52999878
C    11.89000034   8.69000053  50.48999786
C    10.53999996   8.39999962  50.21999741
C     9.55000019   8.63000011  51.22000122
C     8.23999977   8.25000000  51.04000092
C     7.82000017   7.75000000  49.78000259
C     8.71000004   7.63999987  48.74000168
C    10.08999920   7.92999983  48.93000031
C    14.32000065   8.59000015  49.72999954
C    15.00000000   8.23000050  48.54000092
C    16.38000107   8.06999969  48.47000122
C     6.37000036   7.35000038  49.59999847
H     5.97901201   7.81918621  48.69717407
H    10.85000038   7.53000021  46.97000122
H    12.15000057   9.02999973  51.49000168
H     9.84000015   8.89000034  52.22999954
H     7.51999950   8.34000015  51.84999847
H     8.39999962   7.42000008  47.71999741
H    16.84999847   7.72000027  47.55000305
H     5.73000002   7.55000019  50.47000122
H     6.32000017   6.25999975  49.47999954
