96

S    16.84999847   8.85000038  58.22999954
C    19.48999977   9.13999939  57.45999908
C    18.22999954   8.69999981  57.11999893
C    17.86000061   8.02999973  55.90999985
C    18.86999893   7.69999981  55.01999664
C    20.17000008   8.14999962  55.33000183
C    21.21000099   8.05999947  54.34999847
C    22.47999954   8.55000019  54.55999756
C    22.79999924   9.13999939  55.80999756
C    21.81999969   9.38000011  56.73999786
C    20.48999977   8.94999981  56.47999573
C    16.42000008   8.06999969  55.72999954
C    15.72999954   8.52999973  56.88999939
C    14.34000015   8.50000000  56.93999863
C    24.23999977   9.52999973  56.04999924
H    24.69369507   8.92743492  56.83687592
H    19.52000046   9.68000031  58.40999985
H    18.65999985   7.21000004  54.06999969
H    20.97999954   7.53000021  53.43000031
H    23.25000000   8.30000019  53.83999634
H    22.04000092   9.85999966  57.70000076
H    13.81000042   8.55000019  57.88000107
H    24.89000130   9.30000019  55.20000076
H    24.27000046  10.59999943  56.30000305
S    13.30999947   7.26000023  53.25000000
C    10.59999943   7.09999990  53.88000107
C    11.89000034   7.32999992  54.29999924
C    12.15999985   7.88999987  55.59000015
C    11.17000008   8.22000027  56.50000000
C     9.85999966   7.83999968  56.13999939
C     8.82999992   7.81000042  57.11999893
C     7.53999996   7.46000004  56.79999924
C     7.26000023   6.98000002  55.50000000
C     8.23000050   6.96000004  54.52000046
C     9.56999969   7.32999992  54.81999969
C    13.57999992   8.11999989  55.83000183
C    14.27999973   7.78999996  54.64000320
C    15.65000057   7.60999966  54.65000153
C     5.82999992   6.57999992  55.20000076
H     5.30402279   7.18416309  54.46078873
H    10.38000011   6.70000029  52.90000153
H    11.35000038   8.64000034  57.49000168
H     9.09000015   7.95000029  58.15999985
H     6.71000004   7.40000010  57.50999832
H     7.94000053   6.72999954  53.48999786
H    16.23999977   7.25000000  53.81000137
H     5.32999992   6.50000000  56.17000198
H     5.73000002   5.55999994  54.81999969
S    13.61999989   5.07999992  50.14999771
C    10.98999977   4.65000010  50.90999985
C    12.32999992   4.42000008  51.17000198
C    12.76000023   3.91999984  52.43999863
C    11.84000015   3.56999993  53.40999985
C    10.44999981   3.70000005  53.13999939
C     9.48999977   3.10999990  54.00000000
C     8.14999962   3.00999999  53.68000031
C     7.75000000   3.61999989  52.45999908
C     8.63000011   4.23999977  51.60999680
C    10.03000069   4.25000000  51.88000107
C    14.19999981   4.09000015  52.52999878
C    14.81999969   4.69999981  51.39999771
C    16.18000031   4.98000002  51.37000275
C     6.28999996   3.95000005  52.22999954
H     5.90750885   3.57459235  51.28085709
H    10.67999935   4.92999983  49.91000366
H    12.10999966   2.91000009  54.22999954
H     9.81000042   2.73000002  54.95999908
H     7.40999985   2.75000000  54.41999817
H     8.30999947   4.69000006  50.68000031
H    16.56999969   5.59999990  50.56999969
H     5.77000046   3.49000001  53.08000183
H     6.21999979   5.03999996  52.27000427
S    17.52000046   4.09999990  54.94999695
C    20.20999908   4.21999979  54.27999878
C    18.89999962   4.30999994  53.85000229
C    18.50000000   4.74000025  52.55000305
C    19.48999977   5.32999992  51.79000092
C    20.84000015   5.36000013  52.19999695
C    21.84999847   6.07999992  51.51000214
C    23.16999817   6.01000023  51.86000061
C    23.54999924   5.27999973  53.02000046
C    22.59000015   4.76999998  53.87000275
C    21.21999931   4.78999996  53.47000122
C    17.05999947   4.63999987  52.39999771
C    16.39999962   4.21000004  53.57999802
C    15.03999901   3.94000006  53.63999939
C    25.02000046   5.03000021  53.22000122
H    25.37567139   5.34299040  54.20165253
H    20.58000183   3.74000025  55.19000244
H    19.11000061   5.82999992  50.90000153
H    21.57999992   6.60000038  50.59000015
H    23.85999870   6.48999977  51.18000031
H    22.81999969   4.40000010  54.86999893
H    14.68000031   3.61000013  54.61000061
H    25.59000015   5.52999973  52.43000031
H    25.27000046   3.98999977  52.95999908
