96

S    16.31000137   8.71000004  58.00000000
C    19.01000023   8.60000038  57.42000198
C    17.72999954   8.28999996  57.02999878
C    17.43999863   7.72000027  55.75000000
C    18.48999977   7.51999950  54.86000061
C    19.79999924   7.73999977  55.34000015
C    20.86999893   7.53999996  54.41999817
C    22.13999939   7.96000004  54.75000000
C    22.46999931   8.52999973  56.00999832
C    21.45999908   8.78000069  56.90999985
C    20.13999939   8.34000015  56.59999847
C    16.01000023   7.67000008  55.51000214
C    15.29999924   8.17000008  56.63999939
C    13.94000053   8.46000004  56.65000153
C    23.90000153   8.97999954  56.19999695
H    24.42578888   8.29079151  56.86078644
H    19.07999992   9.23999977  58.29000092
H    18.36000061   7.11000013  53.86000061
H    20.53999901   7.14999962  53.46000290
H    22.84000015   7.92000008  53.93000031
H    21.53000069   9.35999966  57.83000183
H    13.38999939   8.67000008  57.56000137
H    24.44999886   9.15999985  55.27000046
H    23.95999908  10.01000023  56.56999969
S    12.79999924   6.98000002  53.15999985
C    10.14999962   6.70000029  53.90999603
C    11.39999962   7.17999983  54.22999954
C    11.75000000   7.77999973  55.48999786
C    10.78999996   7.79999971  56.49000168
C     9.48000050   7.39000034  56.14999771
C     8.43000031   7.63999987  57.08000183
C     7.16000032   7.23999977  56.75000000
C     6.81999969   6.67999983  55.48999786
C     7.79999971   6.42000008  54.54999924
C     9.13000011   6.80000019  54.88999939
C    13.17999935   8.05999947  55.54999924
C    13.89999962   7.55999994  54.43000031
C    15.26999950   7.32999992  54.36999893
C     5.36999989   6.35999966  55.20999908
H     4.99357510   6.80034637  54.28668976
H     9.86999989   6.38999987  52.90999985
H    11.06999969   8.05999947  57.50000000
H     8.69000053   8.11999989  58.02000046
H     6.32000017   7.42000008  57.42000198
H     7.53999996   5.84999990  53.66000366
H    15.78999996   7.05999947  53.46000290
H     4.85000038   6.86999989  56.03000259
H     5.29999971   5.26999998  55.31999969
S    17.27000046   9.06000042  52.01000214
C    19.96999931   9.19000053  51.35000229
C    18.68999863   8.82999992  50.97999954
C    18.30999947   8.26000023  49.72000122
C    19.34000015   8.11999989  48.81999969
C    20.69999886   8.34000015  49.18000031
C    21.80999947   8.17000008  48.29999924
C    23.09000015   8.47000027  48.68999863
C    23.36000061   8.94999981  50.00000000
C    22.36000061   9.11000061  50.93000031
C    21.02999878   8.89999962  50.45000076
C    16.87000084   8.34000015  49.52000046
C    16.14999962   8.69999981  50.68999863
C    14.77000046   8.76999950  50.79999924
C    24.79000092   9.39000034  50.20999908
H    25.30198097   8.90646458  51.04196548
H    20.10999870   9.59000015  52.35000229
H    19.11000061   7.83999968  47.80000305
H    21.53000069   7.81000042  47.30999756
H    23.84000015   8.42000008  47.90999985
H    22.60000038   9.47000027  51.91999817
H    14.29999924   8.86999989  51.77000046
H    25.35000038   9.09000015  49.31999969
H    24.77999878  10.48999977  50.21999741
S    13.56999969   7.36999989  47.27000427
C    10.88000107   7.26999998  48.13999939
C    12.18000031   7.68000031  48.33000183
C    12.57999992   8.23999977  49.59000015
C    11.59000015   8.43000031  50.52999878
C    10.22999954   8.05999947  50.38000107
C     9.19000053   8.23999977  51.33999634
C     7.90000010   7.88000011  51.02000427
C     7.57999992   7.18999958  49.80999756
C     8.52999973   7.13999987  48.81999969
C     9.86999989   7.53999996  49.09000015
C    14.01999950   8.42000008  49.65999985
C    14.70000076   7.96999979  48.50000000
C    16.09000015   7.95000029  48.41999817
C     6.12999964   6.93000031  49.47999954
H     5.74535131   7.59957409  48.71070480
H    10.60999966   6.69000053  47.25999832
H    11.90999985   8.88000011  51.45999908
H     9.42000008   8.71999931  52.29000092
H     7.16000032   8.14999962  51.76000214
H     8.34999943   6.80000019  47.80000305
H    16.52000046   7.62000036  47.48000336
H     5.51000023   6.91999960  50.38000107
H     6.01999998   5.88000011  49.18000031
