96

S    16.31000137   8.71000004  58.00000000
C    19.01000023   8.60000038  57.42000198
C    17.72999954   8.28999996  57.02999878
C    17.43999863   7.72000027  55.75000000
C    18.48999977   7.51999950  54.86000061
C    19.79999924   7.73999977  55.34000015
C    20.86999893   7.53999996  54.41999817
C    22.13999939   7.96000004  54.75000000
C    22.46999931   8.52999973  56.00999832
C    21.45999908   8.78000069  56.90999985
C    20.13999939   8.34000015  56.59999847
C    16.01000023   7.67000008  55.51000214
C    15.29999924   8.17000008  56.63999939
C    13.94000053   8.46000004  56.65000153
C    23.90000153   8.97999954  56.19999695
H    24.42578888   8.29079151  56.86078644
H    19.07999992   9.23999977  58.29000092
H    18.36000061   7.11000013  53.86000061
H    20.53999901   7.14999962  53.46000290
H    22.84000015   7.92000008  53.93000031
H    21.53000069   9.35999966  57.83000183
H    13.38999939   8.67000008  57.56000137
H    24.44999886   9.15999985  55.27000046
H    23.95999908  10.01000023  56.56999969
S    12.79999924   6.98000002  53.15999985
C    10.14999962   6.70000029  53.90999603
C    11.39999962   7.17999983  54.22999954
C    11.75000000   7.77999973  55.48999786
C    10.78999996   7.79999971  56.49000168
C     9.48000050   7.39000034  56.14999771
C     8.43000031   7.63999987  57.08000183
C     7.16000032   7.23999977  56.75000000
C     6.81999969   6.67999983  55.48999786
C     7.79999971   6.42000008  54.54999924
C     9.13000011   6.80000019  54.88999939
C    13.17999935   8.05999947  55.54999924
C    13.89999962   7.55999994  54.43000031
C    15.26999950   7.32999992  54.36999893
C     5.36999989   6.35999966  55.20999908
H     4.99357510   6.80034637  54.28668976
H     9.86999989   6.38999987  52.90999985
H    11.06999969   8.05999947  57.50000000
H     8.69000053   8.11999989  58.02000046
H     6.32000017   7.42000008  57.42000198
H     7.53999996   5.84999990  53.66000366
H    15.78999996   7.05999947  53.46000290
H     4.85000038   6.86999989  56.03000259
H     5.29999971   5.26999998  55.31999969
S    13.50000000   5.17000008  50.40000153
C    10.90000057   4.41000032  51.00999832
C    12.23999977   4.35999966  51.33999634
C    12.76000023   3.71000004  52.50999832
C    11.82999992   3.17000008  53.36999893
C    10.44000053   3.31999993  53.13000107
C     9.44999981   2.82999992  54.02999878
C     8.10000038   2.99000001  53.80000305
C     7.63999987   3.50000000  52.56000137
C     8.55000019   3.93000007  51.62000275
C     9.94000053   3.88000011  51.90999985
C    14.18000031   3.96000004  52.70000076
C    14.70000076   4.73000002  51.63000107
C    16.03000069   5.13000011  51.68000031
C     6.15999985   3.53999996  52.23999786
H     5.74956703   2.62713957  51.80833817
H    10.65000057   4.92999983  50.08999634
H    12.17000008   2.56999993  54.20999908
H     9.86999989   2.19000006  54.79999924
H     7.40999985   2.61999989  54.54999924
H     8.27999973   4.33999968  50.65000153
H    16.61999893   5.69999981  50.96000290
H     5.51000023   3.84999990  53.06999969
H     6.07999992   4.33999968  51.50000000
S    17.53000069   3.63000011  55.05000305
C    20.15000153   3.98999977  54.19000244
C    18.81000137   4.15000010  53.94000244
C    18.27999878   4.71000004  52.72999573
C    19.19000053   5.13999987  51.79000092
C    20.58000183   5.05999994  52.02999878
C    21.53000069   5.58000040  51.11000061
C    22.86000061   5.60999966  51.45000076
C    23.36000061   5.09999990  52.68000031
C    22.46999931   4.46999979  53.53000259
C    21.09000015   4.41000032  53.20999908
C    16.81999969   4.73000002  52.76000214
C    16.26000023   4.07999992  53.88999939
C    14.94999981   3.63000011  53.81999969
C    24.76000023   5.42000008  53.15000153
H    25.13157845   4.76259184  53.93603134
H    20.56999969   3.68999982  55.14999771
H    18.79999924   5.68000031  50.93000031
H    21.04000092   5.78000021  50.14999771
H    23.55999947   6.09000015  50.77999878
H    22.86000061   4.21999979  54.51000214
H    14.52000046   2.99000001  54.58000183
H    24.61999893   6.43000031  53.54999924
H    25.52999878   5.42000008  52.36999893
