96

S    17.14999962   9.35000038  58.29000092
C    19.85000038   9.19999981  57.55000305
C    18.53999901   8.85999966  57.30999756
C    18.11000061   8.17000008  56.12999725
C    19.07999992   7.85000038  55.19000244
C    20.43999863   8.15999985  55.40000153
C    21.40999985   7.79999971  54.41999817
C    22.72999954   8.14000034  54.54999924
C    23.12999916   8.78999996  55.75000000
C    22.22999954   9.15000057  56.72999954
C    20.84000015   8.89000034  56.58000183
C    16.65999985   8.11999989  56.03000259
C    15.98000050   8.75000000  57.09999847
C    14.61999989   9.01000023  57.14000320
C    24.60000038   9.02999973  56.04999924
H    24.95442772   8.54089069  56.95733261
H    20.10999870   9.67000008  58.50000000
H    18.76000023   7.36999989  54.27000046
H    21.01000023   7.25000000  53.57999802
H    23.43000031   7.69999981  53.85000229
H    22.57999802   9.65999985  57.61000061
H    14.17000008   9.67000008  57.88000107
H    25.10999870   8.71999931  55.13999939
H    24.72999954  10.11000061  56.18999863
S    13.43000031   7.44999981  53.68000031
C    10.72000027   7.73999977  54.27000046
C    12.02999973   7.99000025  54.61999893
C    12.43999958   8.52999973  55.87999725
C    11.39000034   8.88000011  56.70999908
C    10.03000069   8.57999992  56.45000076
C     8.97999954   8.67000008  57.39999771
C     7.67000008   8.34000015  57.11999893
C     7.31999969   7.86999989  55.81999969
C     8.30000019   7.77999973  54.86999893
C     9.67000008   8.09000015  55.14999771
C    13.89000034   8.47999954  56.06999969
C    14.56999969   7.92999983  54.95999908
C    15.93000031   7.63000011  54.93000031
C     5.91000032   7.48000050  55.43000031
H     5.36023903   8.02976131  54.66604614
H    10.54999924   7.04999971  53.44999695
H    11.56999969   9.27999973  57.70000076
H     9.27999973   8.90999985  58.40999985
H     6.98999977   8.38999939  57.95999908
H     8.11999989   7.30999994  53.90999603
H    16.52000046   7.30000019  54.09000015
H     5.32999992   7.51999950  56.37000275
H     6.05999994   6.46000004  55.06000137
S    17.43999863   9.39999962  52.36000061
C    20.09000015   9.26999950  51.68000031
C    18.81000137   8.88000011  51.37000275
C    18.43000031   8.45000076  50.05000305
C    19.42000008   8.32999992  49.09000015
C    20.75000000   8.71000004  49.36000061
C    21.87000084   8.57999992  48.48999786
C    23.15000153   9.00000000  48.77999878
C    23.40999985   9.46000004  50.10000229
C    22.42000198   9.48999977  51.05999756
C    21.09999847   9.13999939  50.68999863
C    16.97999954   8.46000004  49.92000198
C    16.31000137   8.86999989  51.10000229
C    14.93000031   8.97000027  51.12999725
C    24.82999992   9.85999966  50.44000244
H    25.20786476   9.23973179  51.25276566
H    20.31999969   9.56999969  52.70000076
H    19.11999893   7.78999996  48.18999863
H    21.76000214   8.02999973  47.56000137
H    24.00000000   9.02999973  48.11999893
H    22.69000053   9.81999969  52.05999756
H    14.34999943   9.23999977  52.01000214
H    25.58000183   9.92000008  49.65000153
H    24.70999908  10.88999939  50.77999878
S    13.68999958   7.97999954  47.50000000
C    11.05000019   7.75000000  48.11999893
C    12.28999996   8.11999989  48.59000397
C    12.67000008   8.57999992  49.88999939
C    11.57999992   8.78000069  50.72000122
C    10.25000000   8.52999973  50.30000305
C     9.17000008   8.64999962  51.22000122
C     7.90000010   8.30999947  50.83000183
C     7.60999966   7.77999973  49.54999924
C     8.64000034   7.60999966  48.64999771
C     9.96000004   8.01999950  48.99000168
C    14.11999893   8.64000034  50.04000092
C    14.80000019   8.31999969  48.83999634
C    16.18999863   8.27000046  48.77999878
C     6.14000034   7.50000000  49.31000137
H     5.73351383   8.12042618  48.51129150
H    10.95000076   7.51999950  47.05999756
H    11.59999943   9.06999969  51.77000046
H     9.39000034   9.13000011  52.16999817
H     7.13000011   8.59000015  51.53999710
H     8.48999977   7.20000029  47.64999771
H    16.67000008   8.06999969  47.81999969
H     5.50000000   7.79999971  50.14999771
H     5.88000011   6.46000004  49.06000137
