96

S    17.25000000   9.23999977  58.25000000
C    20.03999901   9.39999962  57.69000244
C    18.75000000   9.10000038  57.31999969
C    18.45999908   8.67000008  55.97999954
C    19.52000046   8.59000015  55.10000229
C    20.86999893   8.69000053  55.51000214
C    21.90999985   8.61999989  54.54000092
C    23.11000061   9.21000004  54.86000061
C    23.40999985   9.61000061  56.18999863
C    22.43999863   9.68000031  57.16999817
C    21.14000130   9.21000004  56.81999969
C    17.02999878   8.52999973  55.75000000
C    16.21999931   8.93999958  56.84000015
C    14.82999992   9.01000023  56.75000000
C    24.82000160  10.06000042  56.50000000
H    25.32481384   9.30633259  57.10435867
H    20.12000084   9.98999977  58.60000229
H    19.27000046   8.30999947  54.08000183
H    21.53000069   8.31999969  53.56999969
H    23.85000038   9.35999966  54.09000015
H    22.69000053  10.06999969  58.15000153
H    14.22000027   9.28999996  57.60000229
H    25.42000008  10.24000072  55.59999847
H    24.72999954  11.03999996  56.97999954
S    14.01000023   7.23000002  53.33000183
C    11.18999958   7.39000034  53.68000031
C    12.46999931   7.72000027  54.06999969
C    12.72999954   8.40999985  55.28999710
C    11.68000031   8.85000038  56.09000397
C    10.36000061   8.51000023  55.70999908
C     9.30999947   8.60999966  56.65999985
C     8.05000019   8.13000011  56.38999939
C     7.82999992   7.27999973  55.27000046
C     8.82999992   7.11999989  54.33000183
C    10.11999989   7.67000008  54.55999756
C    14.14000034   8.60999966  55.59999847
C    14.94999981   8.05999947  54.58000183
C    16.32999992   7.99000025  54.65999985
C     6.51000023   6.63999987  54.91000366
H     5.94137669   7.30813265  54.26319122
H    11.05999947   6.70000029  52.84999847
H    11.89000034   9.44000053  56.97999954
H     9.59000015   9.03999996  57.62000275
H     7.26999998   8.36999989  57.11000061
H     8.64999962   6.34000015  53.61000061
H    16.97000122   7.53000021  53.90999603
H     5.89999962   6.38000011  55.77999878
H     6.61000013   5.68000031  54.40000153
S    13.81000042   4.94999981  50.34999847
C    11.18000031   4.46000004  51.10000229
C    12.51999950   4.30000019  51.37000275
C    12.98999977   3.88000011  52.64999771
C    12.03999996   3.47000003  53.56999969
C    10.65999985   3.42999983  53.25000000
C     9.63000011   3.14000010  54.19000244
C     8.28999996   3.30999994  53.89999771
C     7.82999992   3.54999995  52.58999634
C     8.80999947   3.96000004  51.70999908
C    10.19999981   3.97000027  52.00000000
C    14.42000008   4.15000010  52.77999878
C    14.98999977   4.84000015  51.68000031
C    16.32999992   5.18000031  51.55000305
C     6.46000004   3.15000010  52.09000015
H     6.16253948   3.63868570  51.16220474
H    10.80000019   5.00999975  50.24000168
H    12.31999969   3.12999988  54.55999756
H     9.88000011   2.71000004  55.15999603
H     7.59999990   2.89000010  54.62999725
H     8.53999996   4.53000021  50.83000183
H    16.69999886   5.55000019  50.59999847
H     6.32000017   2.06999993  52.16999817
H     5.73000002   3.52999973  52.81000137
S    17.77000046   3.95000005  55.06000137
C    20.42000008   4.65999985  54.36000061
C    19.05999947   4.73000002  54.13999939
C    18.55999947   5.26000023  52.90999985
C    19.47999954   5.78999996  52.02000046
C    20.86999893   5.65999985  52.21000290
C    21.80000114   6.00000000  51.18999863
C    23.15000153   6.07999992  51.45999908
C    23.67000198   5.69000006  52.71999741
C    22.79999924   5.14999962  53.63999939
C    21.38999939   5.13000011  53.43999863
C    17.13999939   5.01999950  52.69000244
C    16.59000015   4.32000017  53.79000092
C    15.26999950   3.88000011  53.86000061
C    25.03999901   6.14000034  53.18000031
H    25.46766090   5.56265831  53.99968338
H    20.79999924   4.09000015  55.20999908
H    19.09000015   6.03999996  51.03000259
H    21.38000107   6.42000008  50.27999878
H    23.72999954   6.58999968  50.70999908
H    23.03999901   4.80999994  54.64000320
H    14.88999939   3.32999992  54.71000290
H    24.96999931   7.20000029  53.46000290
H    25.59999847   6.03999996  52.22999954
