96

S    16.94000053   8.73000050  58.25000000
C    19.65999985   8.52999973  57.67000198
C    18.36000061   8.36999989  57.23999786
C    18.06999969   8.05999947  55.87999725
C    19.09000015   7.82000017  54.97000122
C    20.43999863   7.88999987  55.38000107
C    21.47000122   7.82000017  54.40000153
C    22.77000046   8.14000034  54.73999786
C    23.01000214   8.73000050  56.00999832
C    22.03000069   8.78999996  56.95999908
C    20.69999886   8.31999969  56.72999954
C    16.62999916   7.95000029  55.75000000
C    15.86999989   8.34999943  56.88000107
C    14.48999977   8.55000019  56.81999969
C    24.38999939   9.19000053  56.42000198
H    24.95246124   8.57769966  57.12485886
H    19.92000008   9.01000023  58.61000061
H    18.84000015   7.59999990  53.94000244
H    21.09000015   7.67000008  53.40000153
H    23.50000000   8.07999992  53.94000244
H    22.18000031   9.30999947  57.90999985
H    14.01000023   8.76000023  57.77000046
H    25.00999832   9.31999969  55.52999878
H    24.26000214  10.21999931  56.77999878
S    13.48000050   7.27999973  53.22999954
C    10.77999973   7.13999987  53.87000275
C    12.05999947   7.42000008  54.27999878
C    12.32999992   8.05000019  55.54000092
C    11.25000000   8.27999973  56.38000107
C     9.92000008   8.05000019  55.97000122
C     8.82999992   8.34999943  56.83000183
C     7.57999992   7.90000010  56.46999741
C     7.32999992   7.39000034  55.17000198
C     8.32999992   7.17999983  54.26000214
C     9.65999985   7.46999979  54.68000031
C    13.76000023   8.26000023  55.65999985
C    14.52999973   7.82000017  54.54999924
C    15.92000008   7.73999977  54.55999756
C     5.92999983   6.90999985  54.85000229
H     5.38266373   7.41468668  54.05387878
H    10.65999985   6.84999990  52.83000183
H    11.44999981   8.80000019  57.31999969
H     9.09000015   8.73999977  57.81999969
H     6.83000040   7.79999971  57.25000000
H     8.36999989   6.75000000  53.26000214
H    16.46999931   7.75000000  53.61999893
H     5.36000013   6.97000027  55.77999878
H     5.84000015   5.84999990  54.58000183
S    17.70000076   9.39999962  52.04999924
C    20.38999939   9.65999985  51.27999878
C    19.09000015   9.34000015  50.94999695
C    18.73999977   8.71999931  49.69999695
C    19.70999908   8.48999977  48.75000000
C    21.04000092   8.82999992  49.09000015
C    22.14999962   8.55000019  48.23999786
C    23.46999931   8.78999996  48.54000092
C    23.78999901   9.36999989  49.79999924
C    22.78000069   9.63000011  50.70000076
C    21.42000008   9.46000004  50.33000183
C    17.29999924   8.56999969  49.55999756
C    16.61000061   8.85000038  50.77000046
C    15.21999931   8.78999996  50.84999847
C    25.19000053   9.85999966  50.12000275
H    25.73803711   9.16249847  50.75344467
H    20.69000053   9.94000053  52.29000092
H    19.52000046   7.90999985  47.84999847
H    21.94000053   8.10000038  47.27000427
H    24.27999878   8.52000046  47.88000107
H    22.98999977   9.94999981  51.72000122
H    14.75999928   8.88000011  51.83000183
H    25.79000092  10.21999931  49.27999878
H    25.19000053  10.73999977  50.77000046
S    14.09999943   7.75000000  47.15999985
C    11.39000034   7.50999975  47.90000153
C    12.67000008   7.90999985  48.18999863
C    13.00000000   8.36000061  49.51000214
C    12.02000046   8.55000019  50.47000122
C    10.70000076   8.13000011  50.18000031
C     9.59000015   8.39999962  51.04999924
C     8.30000019   8.11999989  50.70000076
C     7.96000004   7.44000006  49.48999786
C     9.03999996   7.13999987  48.68999863
C    10.36999893   7.59000015  48.88999939
C    14.42000008   8.56000042  49.72000122
C    15.11999989   8.14999962  48.54999924
C    16.50000000   8.27000046  48.44999695
C     6.54999971   7.03000021  49.13999939
H     6.11524773   7.65005636  48.35602188
H    11.16000080   6.77999973  47.11999893
H    12.20000076   8.90999985  51.47999573
H     9.85000038   8.90999985  51.97000122
H     7.55999994   8.43000031  51.43000031
H     8.75000000   6.78999996  47.70000076
H    16.90000153   8.07999992  47.45999908
H     5.86000013   7.23000002  49.97000122
H     6.48000002   5.95000029  48.96999741
