96

S    16.60000038   8.85999966  58.13999939
C    19.32999992   8.96000004  57.58999634
C    18.06999969   8.59000015  57.18000031
C    17.73999977   8.01000023  55.90999985
C    18.79999924   7.79999971  55.05000305
C    20.10999870   8.22000027  55.37000275
C    21.24000168   7.97999954  54.54000092
C    22.53000069   8.32999992  54.88999939
C    22.79000092   8.85000038  56.18000031
C    21.73999977   9.01000023  57.05999756
C    20.38999939   8.76999950  56.66999817
C    16.31000137   7.92000008  55.66999817
C    15.55999947   8.39999962  56.77999878
C    14.19000053   8.61999989  56.77000046
C    24.21999931   9.19999981  56.53999710
H    24.76571465   8.42041016  57.07153702
H    19.61000061   9.44999981  58.52000427
H    18.63999939   7.26999998  54.10999680
H    21.04000092   7.59000015  53.54999924
H    23.29000092   8.19999981  54.13999939
H    22.01999855   9.46000004  58.01000214
H    13.57999992   8.84000015  57.63999939
H    24.79999924   9.32999992  55.61999893
H    24.34000015  10.10000038  57.15999985
S    13.15000057   7.18999958  53.20999908
C    10.40999985   7.20000029  53.76999664
C    11.69000053   7.57000017  54.13000107
C    12.02999973   8.14999962  55.40000153
C    10.98000050   8.36999989  56.27999878
C     9.65999985   7.96000004  55.98999786
C     8.57999992   8.06999969  56.90999985
C     7.30000019   7.76000023  56.52999878
C     7.00000000   7.23999977  55.24000168
C     8.02999973   7.02000046  54.36000061
C     9.35999966   7.40000010  54.69999695
C    13.45999908   8.25000000  55.63999939
C    14.19000053   7.71000004  54.54999924
C    15.57000065   7.50999975  54.55999756
C     5.59999990   6.93000031  54.73999786
H     5.23620749   7.59338617  53.95534897
H    10.25000000   6.61000013  52.87000275
H    11.16000080   8.64999962  57.30999756
H     8.61999989   8.47999954  57.91999817
H     6.42000008   7.92000008  57.15000153
H     7.68000031   6.70000029  53.37999725
H    15.93000031   7.03999996  53.64999771
H     4.92000008   6.94999981  55.59999847
H     5.61999989   5.92000008  54.31999969
S    17.20999908   9.07999992  52.43999863
C    19.95000076   9.30000019  51.68000031
C    18.63000107   9.02999973  51.38999939
C    18.30999947   8.56000042  50.06999969
C    19.29999924   8.34999943  49.13000107
C    20.66999817   8.51000023  49.45000076
C    21.75000000   8.48999977  48.52000427
C    23.05000114   8.78000069  48.85000229
C    23.29999924   9.35999966  50.12000275
C    22.26000023   9.68999958  50.96000290
C    20.97999954   9.13000011  50.70999908
C    16.87999916   8.39999962  49.88999939
C    16.15999985   8.85000038  51.03000259
C    14.78000069   8.97999954  50.94999695
C    24.67000008   9.85000038  50.54000092
H    25.05888557   9.38333893  51.44504166
H    20.26000023   9.81999969  52.57999802
H    19.03000069   7.95000029  48.15999985
H    21.54000092   8.10999966  47.52999878
H    23.85999870   8.67999935  48.13000107
H    22.37999916  10.17000008  51.93000031
H    14.23999977   9.22999954  51.86000061
H    25.38999939   9.61999989  49.75000000
H    24.59000015  10.93999958  50.59000015
S    13.73999977   7.65999985  47.32999802
C    11.03000069   7.49000025  47.93000031
C    12.28999996   7.86000013  48.33000183
C    12.60000038   8.57999992  49.52999878
C    11.54000092   8.82000065  50.38000107
C    10.26999950   8.23999977  50.14999771
C     9.13000011   8.47999954  50.96000290
C     7.86999989   8.05000019  50.58000183
C     7.67000008   7.26999998  49.41999817
C     8.73000050   7.04999971  48.56999969
C     9.98999977   7.62000036  48.88000107
C    14.02999973   8.64000034  49.81999969
C    14.75000000   8.19999981  48.68000031
C    16.13000107   8.00000000  48.77999878
C     6.25000000   6.90999985  49.02000046
H     5.79843855   7.66976976  48.38208008
H    10.97000027   6.94999981  46.98999786
H    11.84999943   9.26000023  51.32999802
H     9.22999954   9.13000011  51.83000183
H     7.03000021   8.28999996  51.22000122
H     8.61999989   6.48000002  47.63999939
H    16.68000031   7.42000008  48.04000092
H     5.68000031   6.83000040  49.94999695
H     6.26999950   5.89999962  48.59000397
