96

S    17.02999878   8.48999977  58.20999908
C    19.77000046   8.73999977  57.51999664
C    18.47999954   8.38000011  57.19999695
C    18.15000153   8.07999992  55.84000015
C    19.14999962   7.96000004  54.89999771
C    20.48000145   8.28999996  55.22999573
C    21.47000122   8.25000000  54.20000076
C    22.79000092   8.38999939  54.54000092
C    23.12999916   8.82999992  55.84999847
C    22.17000008   8.97000027  56.81999969
C    20.82999992   8.56000042  56.59999847
C    16.72000122   7.81000042  55.68000031
C    15.97000027   8.05999947  56.84999847
C    14.57999992   8.14000034  56.84999847
C    24.53000069   9.35000038  56.11000061
H    24.97127724   8.65961742  56.82884979
H    19.90999985   9.26999950  58.46000290
H    18.98999977   7.50000000  53.92000198
H    21.24000168   7.69999981  53.29000092
H    23.46999931   8.21000004  53.70999908
H    22.44999886   9.50000000  57.72999573
H    14.04000092   8.51000023  57.71999741
H    25.09000015   9.36999989  55.17000198
H    24.47999954  10.39000034  56.45000076
S    13.63999939   7.14999962  53.09999847
C    10.93000031   6.93000031  53.80000305
C    12.20999908   7.30000019  54.15000153
C    12.50000000   7.69999981  55.48999786
C    11.49000072   7.95000029  56.38999939
C    10.14999962   7.60999966  56.06999969
C     9.18000031   7.59999990  57.11000061
C     7.88000011   7.31999969  56.75000000
C     7.59000015   6.93000031  55.41999817
C     8.52999973   6.84000015  54.41999817
C     9.89000034   7.13999987  54.73999786
C    13.94999981   7.72000027  55.66999817
C    14.68999958   7.36999989  54.52000046
C    16.06999969   7.48000050  54.47999954
C     6.25999975   6.23000050  55.25000000
H     5.75709629   6.73998690  54.42835617
H    10.76000023   6.48999977  52.81999969
H    11.69999981   8.36999989  57.36999893
H     9.44999981   7.63999987  58.15999985
H     7.13000011   7.20000029  57.52999878
H     8.27999973   6.25999975  53.53000259
H    16.63999939   7.44000006  53.55999756
H     5.69999981   6.47000027  56.16000366
H     6.30000019   5.13999987  55.27000046
S    13.48999977   4.92999983  50.30000305
C    10.82999992   4.44999981  51.16000366
C    12.18999958   4.30000019  51.31999969
C    12.68000031   3.71000004  52.52999878
C    11.77999973   3.30000019  53.50999832
C    10.38000011   3.50000000  53.40999985
C     9.46000004   2.84000015  54.27000046
C     8.10999966   2.84000015  54.00000000
C     7.68000031   3.48000002  52.80000305
C     8.52999973   3.98000002  51.84999847
C     9.92000008   4.02999973  52.15999985
C    14.13000011   3.76999998  52.62000275
C    14.65999985   4.55999994  51.56999969
C    16.01000023   4.90000010  51.59000015
C     6.19000006   3.38999987  52.51999664
H     5.88362026   3.22612238  51.48685837
H    10.36999893   5.05000019  50.37000275
H    12.25000000   2.96999979  54.43000031
H     9.92999935   2.32999992  55.10000229
H     7.48000050   2.21000004  54.61999893
H     8.23000050   4.30999994  50.86000061
H    16.34000015   5.50000000  50.73999786
H     5.86000013   2.52999997  53.11999893
H     5.72000027   4.28000021  52.97000122
S    17.39999962   3.54999995  55.02999878
C    20.09000015   4.00999975  54.31999969
C    18.75000000   4.19999981  54.06999969
C    18.22000122   4.76999998  52.87000275
C    19.17000008   5.36000013  52.05999756
C    20.55999947   5.28999996  52.30999756
C    21.48999977   5.82999992  51.38000107
C    22.84000015   5.64000034  51.56000137
C    23.29000092   4.97000027  52.72999573
C    22.44999886   4.55999994  53.74000168
C    21.04999924   4.67000008  53.50999832
C    16.79999924   4.51999998  52.69000244
C    16.17000008   3.93000007  53.81000137
C    14.86999989   3.44000006  53.75999832
C    24.77000046   4.63999987  52.74000168
H    25.31692886   5.12300253  53.54973984
H    20.52999878   3.48000002  55.15999603
H    18.88000107   5.72000027  51.06999969
H    21.14000130   6.30000019  50.47000122
H    23.48999977   5.98999977  50.76000214
H    22.86999893   4.07000017  54.61000061
H    14.51000023   2.84000015  54.59000015
H    25.17000008   4.84000015  51.73999786
H    24.77000046   3.55999994  52.93000031
