96

S    17.05999947   9.18000031  58.11999893
C    19.79999924   9.38000011  57.51999664
C    18.52000046   9.11000061  57.11000061
C    18.26000023   8.32999992  55.93999863
C    19.27000046   8.05999947  55.04000092
C    20.61000061   8.42000008  55.31999969
C    21.70000076   8.30999947  54.40999985
C    22.93999863   8.56000042  54.93000031
C    23.23999786   9.04999924  56.23000336
C    22.14999962   9.30000019  57.04000092
C    20.82999992   8.97000027  56.63000107
C    16.82999992   8.07999992  55.77000046
C    16.03000069   8.43000031  56.88999939
C    14.63999939   8.51000023  56.93000031
C    24.68000031   9.36999989  56.55000305
H    25.13679886   8.64911556  57.22806168
H    20.10000038   9.78999996  58.47999954
H    19.00000000   7.69999981  54.05000305
H    21.48999977   7.81000042  53.46000290
H    23.87000084   8.57999992  54.36000061
H    22.32999992   9.72000027  58.02999878
H    14.15999985   8.78000069  57.85999680
H    25.22999954   9.47000027  55.59999847
H    24.70000076  10.38000011  56.98999786
S    13.60999966   7.26000023  53.27000046
C    10.97000027   7.07999992  53.95000076
C    12.18999958   7.62000036  54.27999878
C    12.51000023   8.19000053  55.54999924
C    11.50000000   8.39999962  56.45999908
C    10.21000004   7.90000010  56.14999771
C     9.18000031   8.05000019  57.11999893
C     7.85000038   7.78999996  56.86999893
C     7.55999994   7.26999998  55.56999969
C     8.52999973   7.09999990  54.61000061
C     9.90999985   7.31999969  54.86999893
C    13.94999981   8.19000053  55.75000000
C    14.67000008   7.76999998  54.59999847
C    16.04999924   7.72000027  54.66999817
C     6.19999981   6.71000004  55.22999573
H     5.57585096   7.31287146  54.57038498
H    10.80999947   6.57999992  53.00000000
H    11.68000031   8.89000034  57.42000198
H     9.46000004   8.47999954  58.08000183
H     7.04999971   7.96000004  57.56999969
H     8.27999973   6.84999990  53.57999802
H    16.59000015   7.28999996  53.81999969
H     5.68000031   6.69000053  56.18999863
H     6.34999990   5.69999981  54.82999802
S    17.64000130   9.36999989  52.23999786
C    20.32999992   9.32999992  51.43000031
C    19.02000046   9.02000046  51.17000198
C    18.59000015   8.52000046  49.89999771
C    19.52999878   8.27999973  48.90999603
C    20.88000107   8.60000038  49.15000153
C    21.93000031   8.30999947  48.22999954
C    23.26999855   8.47000027  48.47000122
C    23.65999985   9.13000011  49.65999985
C    22.67000008   9.53999996  50.52999878
C    21.31000137   9.15000057  50.40999985
C    17.13999939   8.43999958  49.80999756
C    16.47999954   8.86999989  50.98999786
C    15.08999920   8.92000008  51.04000092
C    25.12000084   9.34000015  49.97000122
H    25.56605148   8.87270832  50.84794235
H    20.53999901   9.84000015  52.36999893
H    19.12999916   7.99000025  47.94000244
H    21.63999939   7.92000008  47.25000000
H    23.98999977   8.01000023  47.78999710
H    22.96999931  10.07999992  51.42000198
H    14.60999966   9.34000015  51.91999817
H    25.82999992   9.18000031  49.15000153
H    25.27000046  10.40999985  50.12000275
S    13.94000053   7.90999985  47.36999893
C    11.28999901   7.71000004  48.11000061
C    12.55000019   8.15999985  48.43999863
C    12.94000053   8.64000034  49.72999954
C    11.98999977   8.80999947  50.72000122
C    10.65999985   8.43999958  50.41999817
C     9.64999962   8.43000031  51.42000198
C     8.36999989   7.96999979  51.17000198
C     7.96999979   7.59999990  49.86000061
C     8.98999977   7.44000006  48.94000244
C    10.32999992   7.86000013  49.13999939
C    14.39000034   8.60999966  49.87999725
C    15.07999992   8.26000023  48.68999863
C    16.45000076   8.06999969  48.64999771
C     6.51999998   7.23999977  49.61999893
H     6.14139795   7.91862631  48.85565186
H    11.00000000   7.16000032  47.22000122
H    12.23999977   8.97000027  51.77000046
H     9.96999931   8.69999981  52.42000198
H     7.67000008   7.81000042  51.97999954
H     8.82000065   7.17999983  47.90000153
H    16.98999977   7.69000006  47.78999710
H     6.02999973   7.25000000  50.59999847
H     6.44999981   6.19000006  49.27999878
