96

S    16.94000053   9.28999996  58.22000122
C    19.65999985   9.19999981  57.61000061
C    18.38000107   8.85999966  57.27000427
C    18.02000046   8.26000023  56.02000427
C    18.98999977   8.06999969  55.05000305
C    20.34000015   8.34999943  55.35999680
C    21.42000008   8.11999989  54.45999908
C    22.72000122   8.47999954  54.71000290
C    23.02000046   8.97999954  56.00000000
C    22.01999855   9.22999954  56.90999985
C    20.65000153   8.97000027  56.62000275
C    16.57999992   8.11999989  55.86999893
C    15.85999966   8.60000038  56.98999786
C    14.47000027   8.69999981  56.95999908
C    24.43000031   9.44999981  56.27999878
H    24.95554161   8.96706867  57.10382080
H    19.89999962   9.67000008  58.55999756
H    18.67000008   7.67000008  54.08000183
H    21.09999847   7.90000010  53.43999863
H    23.47999954   8.56999969  53.94000244
H    22.13000107   9.77999973  57.83000183
H    13.90999985   9.09000015  57.80000305
H    25.00000000   9.28999996  55.34999847
H    24.27000046  10.52000046  56.45000076
S    13.47000027   7.20000029  53.34000015
C    10.72000027   7.59000015  53.80000305
C    12.02000046   7.73000002  54.20999908
C    12.39999962   8.15999985  55.52000046
C    11.39999962   8.42000008  56.45000076
C    10.05000019   8.22000027  56.10000229
C     9.00000000   8.27000046  57.06999969
C     7.68000031   8.05000019  56.75000000
C     7.36999989   7.53999996  55.45999908
C     8.32999992   7.55000019  54.47999954
C     9.70000076   7.78999996  54.77000427
C    13.81999969   8.34999943  55.77000046
C    14.50000000   7.86000013  54.62999725
C    15.88000107   7.79999971  54.69999695
C     5.92999983   7.26000023  55.11000061
H     5.39824724   8.01863384  54.53570557
H    10.52000046   7.21000004  52.80000305
H    11.51999950   8.80999947  57.45999908
H     9.39999962   8.43000031  58.06999969
H     6.93000031   8.30000019  57.49000168
H     8.01999950   7.30999994  53.46000290
H    16.42000008   7.63000011  53.76999664
H     5.33999968   7.11000013  56.02000427
H     5.84999990   6.28999996  54.61000061
S    17.52000046   9.35000038  52.30999756
C    20.20999908   9.32999992  51.66999817
C    18.95000076   8.89999962  51.36000061
C    18.56999969   8.27999973  50.12000275
C    19.59000015   8.01000023  49.22000122
C    20.92000008   8.36000061  49.52000046
C    22.00000000   8.26000023  48.59000397
C    23.25000000   8.76999950  48.80000305
C    23.52000046   9.46000004  50.01999664
C    22.55000114   9.57999992  50.97999954
C    21.25000000   9.03999996  50.75000000
C    17.13999939   8.36999989  49.86999893
C    16.44000053   8.90999985  50.97000122
C    15.06999969   9.17000008  50.90999985
C    24.87999916  10.06999969  50.24000168
H    25.30539513   9.67296505  51.16168594
H    20.43000031  10.03000069  52.48000336
H    19.37999916   7.76000023  48.18000031
H    21.73999977   7.81000042  47.63999939
H    23.94000053   8.84000015  47.95999908
H    22.69000053  10.29999924  51.77999878
H    14.55999947   9.59999943  51.76000214
H    25.45999908   9.82999992  49.34999847
H    24.77999878  11.17000008  50.27999878
S    13.99000072   7.85000038  47.31999969
C    11.23999977   7.92000008  47.88000107
C    12.53000069   8.23000050  48.26000214
C    12.86999893   8.67000008  49.58000183
C    11.79999924   8.93000031  50.40999985
C    10.46000004   8.64000034  50.06999969
C     9.39000034   8.76999950  51.00000000
C     8.10999966   8.40999985  50.66999817
C     7.78999996   7.85000038  49.40000153
C     8.82999992   7.67000008  48.50999832
C    10.14000034   8.15999985  48.75000000
C    14.29999924   8.76000023  49.80999756
C    15.01999950   8.19999981  48.72000122
C    16.36999893   7.86999989  48.81000137
C     6.40999985   7.30999994  49.09999847
H     5.87871838   7.99004030  48.43412781
H    11.05000019   7.26999998  47.02999878
H    11.89000034   9.25000000  51.45000076
H     9.77000046   9.09000015  51.97000122
H     7.35000038   8.43999958  51.44000244
H     8.57999992   7.03999996  47.65999603
H    16.86000061   7.28999996  48.04000092
H     5.82999992   7.14999962  50.00999832
H     6.65000010   6.32999992  48.67000198
