96

S    17.38999939   9.22000027  58.06999969
C    20.07999802   9.25000000  57.36000061
C    18.81000137   8.80000019  57.09999847
C    18.43000031   8.19000053  55.86000061
C    19.47000122   7.99000025  54.98000336
C    20.82999992   8.27999973  55.22999573
C    21.90999985   8.14999962  54.31000137
C    23.22000122   8.42000008  54.64000320
C    23.47999954   9.02999973  55.90000153
C    22.49000168   9.19000053  56.84000015
C    21.14999962   8.85999966  56.51000214
C    16.97999954   8.06999969  55.72000122
C    16.28999901   8.55000019  56.86000061
C    14.89999962   8.64000034  56.90999985
C    24.89999962   9.42000008  56.22000122
H    25.31022644   8.93197346  57.10410690
H    20.29000092   9.75000000  58.29999924
H    19.29999924   7.67000008  53.95000076
H    21.59000015   7.78999996  53.34000015
H    23.97999954   8.13000011  53.92000198
H    22.67999840   9.46000004  57.88000107
H    14.47000027   9.02000046  57.83000183
H    25.52999878   9.13999939  55.35999680
H    24.89999962  10.50000000  56.40999603
S    13.75000000   7.11000013  53.47000122
C    10.98000050   7.32999992  54.06000137
C    12.30000019   7.57000017  54.38999939
C    12.69000053   8.23999977  55.59000015
C    11.71000004   8.71999931  56.44000244
C    10.34999943   8.39999962  56.18999863
C     9.35000038   8.71999931  57.15000153
C     8.06999969   8.27000046  56.90000153
C     7.72000027   7.50999975  55.75000000
C     8.67000008   7.17000008  54.80999756
C     9.98000050   7.68000031  55.00000000
C    14.11999893   8.17000008  55.84999847
C    14.85000038   7.59000015  54.77000427
C    16.22999954   7.48000050  54.68999863
C     6.32999992   6.94999981  55.54000092
H     5.73121119   7.41334867  54.75587082
H    10.77000046   6.60000038  53.27999878
H    11.84999943   9.15999985  57.42000198
H     9.77000046   9.09000015  58.08000183
H     7.30000019   8.38000011  57.64999771
H     8.40999985   6.63999987  53.88999939
H    16.81999969   7.23000002  53.81999969
H     5.68000031   7.04999971  56.42000198
H     6.35999966   5.86999989  55.34000015
S    17.80999947   9.09000015  52.30999756
C    20.51000214   9.35999966  51.52000046
C    19.23999977   8.88000011  51.29000092
C    18.78999901   8.42000008  50.00999832
C    19.77000046   8.19999981  49.06000137
C    21.11999893   8.59000015  49.22999954
C    22.14999962   8.34999943  48.27999878
C    23.45999908   8.57999992  48.61999893
C    23.80000114   9.28999996  49.79999924
C    22.79999924   9.67000008  50.65999985
C    21.45000076   9.23999977  50.47000122
C    17.34000015   8.30000019  49.87999725
C    16.63999939   8.76000023  51.02000427
C    15.26999950   8.98999977  51.07999802
C    25.20999908   9.75000000  50.08999634
H    25.63684082   9.22356510  50.94367981
H    20.69999886   9.89999962  52.44999695
H    19.45999908   7.57000017  48.22999954
H    21.81999969   7.96999979  47.30999756
H    24.23999977   8.39999962  47.88999939
H    22.93000031  10.14999962  51.62000275
H    14.73000050   9.35000038  51.95000076
H    25.86999893   9.39999962  49.29000092
H    25.34000015  10.84000015  50.13999939
S    14.06000042   7.55000019  47.55000305
C    11.40999985   7.44000006  48.25000000
C    12.67000008   7.88000011  48.60000229
C    13.04999924   8.47000027  49.85000229
C    12.03999996   8.61999989  50.77999878
C    10.71000004   8.23999977  50.47000122
C     9.68000031   8.60999966  51.38000107
C     8.40999985   8.14999962  51.13999939
C     8.07999992   7.57999992  49.87999725
C     9.02000046   7.36000013  48.89999771
C    10.38000011   7.65999985  49.20000076
C    14.50000000   8.57999992  49.98000336
C    15.15999985   8.02999973  48.86000061
C    16.54000092   7.88000011  48.81000137
C     6.67999983   7.16000032  49.50000000
H     6.26135969   7.68507481  48.64143372
H    11.21000099   6.98999977  47.29000092
H    12.36999989   9.06999969  51.72000122
H     9.92000008   9.22999954  52.23999786
H     7.55000019   8.30000019  51.77999878
H     8.75000000   6.88000011  47.95999908
H    17.00000000   7.26999998  48.04000092
H     6.06999969   7.36000013  50.38999939
H     6.67000008   6.07999992  49.31999969
