96

S    17.13999939   8.61999989  58.29999924
C    19.85999870   8.76000023  57.61000061
C    18.55999947   8.51000023  57.23999786
C    18.17000008   8.11999989  55.91999817
C    19.13999939   7.96000004  54.93999863
C    20.48000145   8.25000000  55.31000137
C    21.55999947   8.10999966  54.40000153
C    22.88999939   8.30999947  54.69999695
C    23.22999954   8.71999931  56.02000427
C    22.23999977   8.92000008  56.95000076
C    20.88000107   8.67000008  56.62000275
C    16.73999977   7.99000025  55.70999908
C    16.07999992   8.15999985  56.95000076
C    14.70000076   8.11999989  57.06999969
C    24.67000008   9.06000042  56.33999634
H    25.16247368   8.49615383  57.13223648
H    20.17999840   9.06000042  58.61000061
H    18.84000015   7.79999971  53.90999603
H    21.28999901   8.05000019  53.34999847
H    23.68000031   8.17000008  53.96999741
H    22.46000099   9.22000027  57.97000122
H    14.28999996   8.27999973  58.06000137
H    25.22000122   8.86999989  55.40999985
H    24.71999931  10.14999962  56.45999908
S    13.43999958   7.30999994  53.36999893
C    10.77999973   7.07000017  54.20000076
C    12.06999969   7.42999983  54.48999786
C    12.48999977   7.82000017  55.80999756
C    11.54999924   7.99000025  56.81000137
C    10.19000053   7.75000000  56.52000046
C     9.19999981   7.71000004  57.55000305
C     7.88999987   7.42000008  57.21000290
C     7.46000004   7.09999990  55.89000320
C     8.45000076   6.97000027  54.94999695
C     9.81999969   7.23999977  55.22999573
C    13.94000053   7.90999985  55.90999985
C    14.59000015   7.60999966  54.68999863
C    15.98000050   7.60999966  54.59999847
C     6.01000023   6.81999969  55.56000137
H     5.61215830   7.54464054  54.84956741
H    10.34999943   6.78999996  53.23999786
H    11.82999992   8.17000008  57.84999847
H     9.53999996   7.76000023  58.56999969
H     7.22000027   7.42000008  58.06000137
H     8.19000053   6.83000040  53.90999603
H    16.28000069   7.25000000  53.61999893
H     5.44000053   6.80999994  56.49000168
H     5.98000002   5.78999996  55.18000031
S    13.81999969   5.35000038  50.27999878
C    11.13000011   4.85000038  50.90000153
C    12.46000099   4.65999985  51.18999863
C    12.89000034   4.03999996  52.41000366
C    11.92000008   3.65000010  53.31999969
C    10.54999924   3.68999982  52.95999908
C     9.55999947   3.17999983  53.85000229
C     8.23000050   3.44000006  53.63999939
C     7.79999971   4.19999981  52.51999664
C     8.71999931   4.61000013  51.59000015
C    10.11999989   4.38000011  51.77999878
C    14.28999996   4.30000019  52.69000244
C    14.93000031   4.97000027  51.60999680
C    16.27000046   5.29999971  51.63999939
C     6.35999966   4.53999996  52.21000290
H     5.94789696   4.03552866  51.33605957
H    11.00999928   5.50000000  50.04000092
H    12.20999908   3.24000001  54.29000092
H     9.86999989   2.91000009  54.85000229
H     7.49000025   3.17000008  54.38000107
H     8.31999969   5.03000021  50.66999817
H    16.69999886   5.84999990  50.79999924
H     5.59999990   4.42000008  53.00000000
H     6.30000019   5.60999966  51.97999954
S    17.56999969   3.65999985  55.05000305
C    20.20000076   4.48000002  54.47000122
C    18.86000061   4.48999977  54.15999985
C    18.45999908   5.09999990  52.93000031
C    19.38999939   5.65999985  52.08000183
C    20.78000069   5.56999969  52.32999802
C    21.80000114   6.03999996  51.45000076
C    23.12999916   5.92999983  51.77999878
C    23.54000092   5.33999968  53.00000000
C    22.57999802   4.81999969  53.83999634
C    21.18999863   4.94999981  53.56999969
C    17.02999878   4.86000013  52.72999573
C    16.42000008   4.15000010  53.79000092
C    15.05000019   3.95000005  53.81999969
C    24.94999886   4.86999989  53.29000092
H    25.42048836   5.35474539  54.14543152
H    20.35000038   3.89999986  55.38999939
H    19.01000023   5.98999977  51.11999893
H    21.32999802   6.43000031  50.54999924
H    23.85000038   6.19000006  51.00000000
H    22.86999893   4.30999994  54.75000000
H    14.55000019   3.44000006  54.64000320
H    25.52999878   5.15999985  52.39999771
H    25.02000046   3.77999997  53.33000183
