96

S    16.56999969   8.71999931  58.59000397
C    19.23999977   9.02000046  57.77999878
C    17.95999908   8.61999989  57.49000168
C    17.65999985   8.05999947  56.19999695
C    18.68000031   7.85000038  55.28999710
C    19.98999977   8.27000046  55.61000061
C    21.07000160   8.09000015  54.71000290
C    22.34000015   8.48999977  55.06000137
C    22.69000053   9.06999969  56.31000137
C    21.64999962   9.30000019  57.18000031
C    20.31999969   8.89000034  56.86999893
C    16.21999931   7.92000008  56.03000259
C    15.52999973   8.34000015  57.19999695
C    14.14000034   8.36000061  57.14000320
C    24.09000015   9.53999996  56.63000107
H    24.66386795   8.79609680  57.18261719
H    19.43000031   9.35999966  58.79000092
H    18.54999924   7.18999958  54.43000031
H    20.92000008   7.59999990  53.75000000
H    23.15999985   8.22000027  54.40000153
H    21.68000031   9.71000004  58.18999863
H    13.63000011   8.69999981  58.02999878
H    24.44000053   9.82999992  55.63000107
H    24.04999924  10.44000053  57.25000000
S    13.15999985   7.34000015  53.43000031
C    10.39000034   7.20000029  54.06999969
C    11.69000053   7.50999975  54.40999985
C    12.00000000   7.88999987  55.75000000
C    10.95999908   8.17000008  56.62000275
C     9.63000011   7.81000042  56.30000305
C     8.52999973   7.85000038  57.19999695
C     7.23999977   7.50000000  56.90999985
C     6.96000004   7.07000017  55.58000183
C     7.97999954   6.98000002  54.65999985
C     9.30999947   7.39000034  54.95999908
C    13.43000031   8.10999966  55.96000290
C    14.19000053   7.77999973  54.80999756
C    15.55999947   7.57000017  54.85000229
C     5.51000023   7.00000000  55.14999771
H     5.28070974   7.92432642  54.61976624
H    10.21000004   6.57999992  53.20000076
H    11.09000015   8.47999954  57.65999603
H     8.69999981   8.45000076  58.09000015
H     6.38000011   7.73999977  57.52999878
H     7.65999985   6.75000000  53.64999771
H    16.11999893   7.30999994  53.95999908
H     4.81999969   6.80000019  55.97999954
H     5.35000038   6.21000004  54.40999985
S    13.73999977   5.51000023  50.34999847
C    11.09000015   5.03999996  50.97999954
C    12.41000080   4.81999969  51.30000305
C    12.84999943   4.11999989  52.47000122
C    11.84999943   3.60000014  53.27000046
C    10.47000027   3.86000013  53.04000092
C     9.42000008   3.28000021  53.80000305
C     8.10000038   3.55999994  53.54999924
C     7.71000004   4.41000032  52.49000168
C     8.69000053   4.82999992  51.63000107
C    10.06999969   4.59000015  51.86999893
C    14.29999924   4.19000006  52.57999802
C    14.91000080   4.99000025  51.58000183
C    16.26000023   5.32000017  51.62000275
C     6.26999950   4.78999996  52.21000290
H     5.89985132   4.34866905  51.28462982
H    10.84000015   5.61999989  50.10000229
H    12.06999969   3.00000000  54.15000153
H     9.57999992   2.59000015  54.62999725
H     7.39000034   2.91000009  54.06000137
H     8.45000076   5.36000013  50.70999908
H    16.72000122   5.97000027  50.87999725
H     5.75999975   4.38000011  53.09000015
H     6.15999985   5.88000011  52.15000153
S    17.45000076   3.50000000  54.97000122
C    20.12000084   3.98999977  54.51000214
C    18.81999969   4.19999981  54.09000015
C    18.47999954   4.99000025  52.95000076
C    19.55000114   5.53999996  52.27000427
C    20.90999985   5.23000002  52.50000000
C    22.01000023   5.73999977  51.75000000
C    23.29999924   5.38999987  52.06999969
C    23.57999992   4.69000006  53.27000046
C    22.53000069   4.21999979  54.02000046
C    21.15999985   4.42000008  53.66000366
C    17.05000114   4.86000013  52.69000244
C    16.39999962   4.05000019  53.64999771
C    15.06000042   3.67000008  53.62999725
C    25.00000000   4.63999987  53.79000092
H    25.41131973   5.59028625  54.13040161
H    20.20999908   3.70000005  55.56000137
H    19.19000053   6.23000050  51.50000000
H    21.84999847   6.40999985  50.90999985
H    24.13999939   5.84999990  51.56999969
H    22.73999977   3.58999991  54.87999725
H    14.65000057   3.12999988  54.47000122
H    25.63999939   4.26999998  52.98999786
H    24.93999863   3.91999984  54.61999893
