96

S    16.56999969   8.93999958  58.11000061
C    19.25000000   8.97999954  57.48000336
C    17.97000122   8.67999935  57.05999756
C    17.61000061   8.28999996  55.72999954
C    18.61999893   8.13000011  54.79000092
C    19.93999863   8.52000046  55.10000229
C    21.00000000   8.40999985  54.15000153
C    22.30999947   8.61999989  54.51000214
C    22.59000015   9.11999989  55.80999756
C    21.59000015   9.17000008  56.76000214
C    20.23999977   8.84000015  56.46999741
C    16.15999985   8.21000004  55.59000015
C    15.46000004   8.64999962  56.75000000
C    14.07999992   8.69000053  56.81999969
C    23.95999908   9.61999989  56.20999908
H    24.47959900   8.90110207  56.84348297
H    19.47999954   9.34000015  58.47999954
H    18.45000076   7.62000036  53.83999634
H    20.75000000   8.05000019  53.15999985
H    23.09999847   8.51000023  53.77999878
H    21.94999886   9.52999973  57.71999741
H    13.60999966   8.96000004  57.77000046
H    24.46000099   9.80000019  55.25000000
H    23.81000137  10.57999992  56.70999908
S    12.88000011   7.59999990  53.22999954
C    10.17000008   7.30999994  54.06999969
C    11.47999954   7.64999962  54.31999969
C    11.84999943   8.06999969  55.63999939
C    10.86999989   8.10999966  56.62000275
C     9.50000000   7.79999971  56.43000031
C     8.48999977   7.76999998  57.43000031
C     7.17999983   7.57999992  57.05999756
C     6.86999989   7.30000019  55.70999908
C     7.82999992   7.23000002  54.72000122
C     9.19000053   7.35000038  55.10000229
C    13.27999973   8.31999969  55.73999786
C    13.99000072   7.95000029  54.56999969
C    15.38000011   7.86999989  54.47999954
C     5.45000029   7.00000000  55.28999710
H     5.06618595   7.64679718  54.50104904
H     9.85000038   7.02000046  53.06999969
H    11.10999966   8.36999989  57.64999771
H     8.73000050   8.14000034  58.43000031
H     6.32999992   7.82000017  57.70000076
H     7.60999966   7.13000011  53.66000366
H    15.84000015   7.63000011  53.53000259
H     4.76000023   7.03999996  56.13999939
H     5.46000004   5.96000004  54.94999695
S    17.26000023   9.55000019  52.06999969
C    19.95000076   9.82999992  51.25999832
C    18.65999985   9.40999985  51.00000000
C    18.30999947   8.78000069  49.77000427
C    19.32999992   8.45000076  48.88999939
C    20.66999817   8.86999989  49.09000015
C    21.77999878   8.69000053  48.20999908
C    23.05999947   9.07999992  48.48999786
C    23.36999893   9.71000004  49.72000122
C    22.29999924   9.98999977  50.54999924
C    20.95999908   9.59999943  50.28999710
C    16.87000084   8.64999962  49.59999847
C    16.17000008   9.11000061  50.73999786
C    14.78999996   9.28999996  50.73999786
C    24.79000092  10.05000019  50.12000275
H    25.04630280   9.42348576  50.97433853
H    20.13000107  10.31000042  52.22000122
H    19.07999992   7.88999987  47.98999786
H    21.54000092   8.26000023  47.23999786
H    23.90999985   8.67000008  47.95000076
H    22.47999954  10.47999954  51.51000214
H    14.27999973   9.52999973  51.66999817
H    25.45000076  10.01999950  49.25000000
H    24.84000015  11.10999966  50.40000153
S    13.73000050   7.59000015  47.27000427
C    11.02000046   7.82000017  47.87000275
C    12.31999969   8.09000015  48.22000122
C    12.65999985   8.73999977  49.45000076
C    11.59000015   9.10000038  50.26000214
C    10.26000023   8.67999935  50.01999664
C     9.19000053   8.67999935  50.96000290
C     7.88999987   8.36000061  50.65000153
C     7.57000017   7.85000038  49.36999893
C     8.60999966   7.69999981  48.47999954
C     9.94000053   8.13000011  48.73000336
C    14.11000061   8.85999966  49.59000015
C    14.80000019   8.26000023  48.52000427
C    16.18999863   8.13000011  48.50000000
C     6.21000004   7.30999994  48.99000168
H     5.67552710   8.02975655  48.37001038
H    10.88999939   7.18999958  46.98999786
H    11.82000065   9.26999950  51.31000137
H     9.47000027   8.93000031  51.98999786
H     7.07999992   8.47000027  51.36000061
H     8.48999977   7.17000008  47.52999878
H    16.70999908   7.55999994  47.72999573
H     5.53999996   7.00999975  49.79999924
H     6.37000036   6.40999985  48.37999725
