96

S    17.12000084   8.71000004  58.33000183
C    19.84000015   8.67999935  57.60000229
C    18.53000069   8.34000015  57.31999969
C    18.05999947   7.79999971  56.07999802
C    18.98999977   7.65999985  55.06000137
C    20.34000015   8.01999950  55.25000000
C    21.32999802   7.77999973  54.25000000
C    22.65000153   8.05999947  54.54000092
C    23.01000214   8.69999981  55.76000214
C    22.07999992   8.98999977  56.72999954
C    20.72999954   8.61999989  56.50000000
C    16.61999893   7.73999977  55.93000031
C    15.95000076   8.22000027  57.08000183
C    14.56999969   8.30999947  57.15000153
C    24.46000099   9.06000042  55.96000290
H    24.92862892   8.37125969  56.66294098
H    20.10999870   9.13999939  58.54000092
H    18.63999939   7.36000013  54.06999969
H    21.01000023   7.37999964  53.29000092
H    23.45000076   8.05000019  53.81000137
H    22.42000198   9.48000050  57.63999939
H    14.14000034   8.48999977  58.13000107
H    24.89999962   9.10000038  54.95999908
H    24.43000031  10.11999989  56.25000000
S    13.31999969   7.48000050  53.48999786
C    10.59999943   7.20000029  54.19000244
C    11.87999916   7.57000017  54.52999878
C    12.35999966   8.00000000  55.80999756
C    11.39999962   8.14000034  56.79000092
C    10.03999901   7.82000017  56.53999710
C     9.06000042   7.79999971  57.57999802
C     7.73000002   7.55000019  57.32999802
C     7.30999994   7.23999977  56.00000000
C     8.26000023   7.20000029  55.00999832
C     9.64999962   7.37999964  55.22999573
C    13.80000019   8.01000023  56.02000427
C    14.47999954   7.65999985  54.81999969
C    15.85999966   7.57000017  54.75999832
C     5.86000013   6.90000010  55.76000214
H     5.53326368   7.52506113  54.92895508
H    10.34999943   6.84000015  53.20000076
H    11.56999969   8.34999943  57.84000015
H     9.35000038   8.22000027  58.54000092
H     7.11000013   7.51999950  58.20999908
H     7.94000053   7.11999989  53.96999741
H    16.42000008   7.39000034  53.85000229
H     5.19999981   6.98000002  56.63999939
H     5.82000017   5.84999990  55.43000031
S    13.81000042   5.50000000  50.63000107
C    11.18000031   4.92999983  51.35000229
C    12.51999950   4.69999981  51.55000305
C    13.00000000   4.05000019  52.72999573
C    12.15000057   3.45999980  53.64999771
C    10.76000023   3.61999989  53.40000153
C     9.82999992   3.00000000  54.29000092
C     8.48999977   3.28000021  54.16999817
C     8.02999973   4.07000017  53.08000183
C     8.86999989   4.59999990  52.14000320
C    10.26999950   4.36999989  52.28000259
C    14.44000053   4.18000031  52.90999985
C    14.93999958   5.05000019  51.91999817
C    16.27000046   5.46999979  51.90000153
C     6.54999971   4.30000019  52.85999680
H     6.15070391   3.92209530  51.91880035
H    10.92000008   5.66999960  50.59999847
H    12.50000000   2.89000010  54.51000214
H    10.21999931   2.48000002  55.15999603
H     7.79999971   2.86000013  54.89999771
H     8.43000031   5.18000031  51.32999802
H    16.63999939   5.92999983  50.98999786
H     5.95000029   3.94000006  53.70999908
H     6.32000017   5.36999989  52.83000183
S    17.77000046   3.52999973  55.06000137
C    20.42000008   3.82999992  54.10999680
C    19.06999969   4.09999990  54.00000000
C    18.54999924   4.86000013  52.90000153
C    19.40999985   5.32000017  51.90999985
C    20.81000137   5.12000036  52.06999969
C    21.75000000   5.60999966  51.11999893
C    23.11000061   5.46999979  51.30000305
C    23.57999992   5.00999975  52.55000305
C    22.73999977   4.30000019  53.37999725
C    21.34000015   4.41000032  53.20000076
C    17.10000038   4.94000006  52.88999939
C    16.54000092   4.21999979  53.97999573
C    15.21000004   3.81000018  54.01000214
C    25.02000046   5.27999973  52.91999817
H    25.34734344   4.60396767  53.70988846
H    20.76000023   3.16000009  54.88999939
H    18.96999931   5.77000046  51.03000259
H    21.45000076   6.14000034  50.21999741
H    23.71000099   5.93999958  50.52000046
H    23.12999916   3.91999984  54.33000183
H    14.75000000   3.23000002  54.79999924
H    25.13999939   6.34999990  53.15000153
H    25.59999847   5.17000008  51.98999786
