96

S    16.79000092   9.17000008  58.25000000
C    19.52000046   9.43000031  57.60000229
C    18.26000023   8.96000004  57.29000092
C    17.89999962   8.40999985  56.00999832
C    18.93000031   8.22000027  55.11000061
C    20.22999954   8.71999931  55.37000275
C    21.35000038   8.47000027  54.52000046
C    22.60999870   8.97000027  54.77000427
C    22.90999985   9.57999992  56.02000427
C    21.90000153   9.61999989  56.95000076
C    20.53999901   9.35999966  56.62000275
C    16.47999954   8.14999962  55.83000183
C    15.72999954   8.69999981  56.90000153
C    14.34000015   8.78000069  56.95000076
C    24.33000183   9.98000050  56.33999634
H    24.77659607   9.23567390  56.99926376
H    19.75000000   9.92999935  58.54000092
H    18.82999992   7.75000000  54.13999939
H    21.28000069   7.69999981  53.75999832
H    23.38999939   8.61999989  54.09000015
H    22.07999992   9.94999981  57.97000122
H    13.80000019   9.07999992  57.84999847
H    24.86999893  10.14999962  55.40000153
H    24.23000145  11.00000000  56.75000000
S    13.30999947   7.40999985  53.33000183
C    10.59000015   7.18999958  54.03999710
C    11.85999966   7.64999962  54.31999969
C    12.22000027   8.27000046  55.56000137
C    11.21000099   8.43000031  56.49000168
C     9.89000034   8.01999950  56.19999695
C     8.85000038   8.17000008  57.16999817
C     7.55999994   7.72000027  57.04999924
C     7.27999973   7.00000000  55.86000061
C     8.23000050   6.80000019  54.87999725
C     9.53999996   7.36000013  54.97000122
C    13.64999962   8.36999989  55.80999756
C    14.35999966   7.90999985  54.66999817
C    15.73999977   7.69000006  54.73999786
C     5.92000008   6.47000027  55.47999954
H     5.57765865   6.88366270  54.53142929
H    10.21999931   6.80000019  53.09000015
H    11.42000008   8.73000050  57.51999664
H     9.11999989   8.51000023  58.16999817
H     6.76000023   7.90000010  57.77000046
H     7.88000011   6.15000010  54.08000183
H    16.17000008   7.35000038  53.81000137
H     5.29999971   6.77999973  56.32999802
H     6.02999973   5.38000011  55.40999985
S    17.13999939   9.31999969  52.21000290
C    19.79999924   9.53999996  51.52000046
C    18.53000069   9.19000053  51.11999893
C    18.26000023   8.65999985  49.81999969
C    19.27999878   8.36999989  48.93000031
C    20.59000015   8.78000069  49.29000092
C    21.70000076   8.47999954  48.46000290
C    22.98000145   8.80999947  48.82999802
C    23.25000000   9.48000050  50.05000305
C    22.20000076   9.64999962  50.93000031
C    20.86000061   9.31999969  50.59999847
C    16.81999969   8.61999989  49.61999893
C    16.11999893   8.97999954  50.79999924
C    14.73000050   9.04999924  50.80999756
C    24.70999908   9.67000008  50.41999817
H    25.12985039   9.02954960  51.19565582
H    20.19000053   9.90999985  52.47000122
H    19.10000038   8.03999996  47.91999817
H    21.71999931   7.96000004  47.50999832
H    23.78000069   8.42000008  48.20000076
H    22.37999916   9.81000042  51.98999786
H    14.25000000   9.30999947  51.75000000
H    25.29000092   9.53999996  49.50000000
H    24.77000046  10.70000076  50.79000092
S    13.60000038   7.96000004  47.14000320
C    10.90999985   7.92999983  47.84999847
C    12.20000076   8.25000000  48.18999863
C    12.57999992   8.47999954  49.54999924
C    11.56999969   8.64000034  50.47999954
C    10.21999931   8.36000061  50.13999939
C     9.13999939   8.39999962  51.06999969
C     7.83999968   8.10999966  50.72000122
C     7.48000050   7.69999981  49.40999985
C     8.55000019   7.49000025  48.56999969
C     9.85999966   7.96999979  48.80000305
C    14.01999950   8.64000034  49.68000031
C    14.70999908   8.32999992  48.47000122
C    16.10000038   8.27999973  48.47000122
C     6.07999992   7.28999996  49.00000000
H     5.77442360   7.72349215  48.04773712
H    10.71000004   7.50999975  46.86000061
H    11.80999947   8.94999981  51.49000168
H     9.50000000   8.64000034  52.05999756
H     7.05999947   8.14999962  51.47999573
H     8.31999969   6.90999985  47.68000031
H    16.48999977   7.86000013  47.55000305
H     5.38000011   7.63000011  49.78000259
H     5.92999983   6.21000004  49.09000015
