96

S    16.63999939   8.90999985  58.06999969
C    19.36000061   8.76999950  57.31999969
C    18.04000092   8.43999958  57.09000015
C    17.61999893   7.75000000  55.90999985
C    18.63999939   7.42000008  55.04000092
C    20.00000000   7.82000017  55.14999771
C    21.00000000   7.65999985  54.15000153
C    22.30999947   8.01000023  54.40000153
C    22.65999985   8.67000008  55.61000061
C    21.73000145   8.85000038  56.60999680
C    20.38000107   8.47000027  56.38000107
C    16.17000008   7.76999998  55.72000122
C    15.50000000   8.26000023  56.86999893
C    14.13000011   8.47999954  56.81999969
C    24.03000069   9.27999973  55.80999756
H    24.54818726   8.73341942  56.59792709
H    19.51000023   9.22999954  58.29000092
H    18.36000061   6.84999990  54.15999985
H    20.69000053   7.40000010  53.15000153
H    23.00000000   7.79999971  53.60000229
H    21.97999954   9.50000000  57.44999695
H    13.63999939   9.13999939  57.52999878
H    24.61999893   9.25000000  54.87999725
H    23.95000076  10.34999943  56.04999924
S    12.98999977   6.98000002  53.30999756
C    10.24000072   7.32999992  53.88999939
C    11.56999969   7.42999983  54.26000214
C    11.92000008   7.90000010  55.56999969
C    10.90999985   8.34000015  56.38999939
C     9.55999947   8.03999996  56.05999756
C     8.55000019   8.42000008  56.97999954
C     7.26000023   7.99000025  56.83000183
C     6.86999989   7.49000025  55.56000137
C     7.76999998   7.30000019  54.54000092
C     9.15000057   7.60999966  54.75000000
C    13.35999966   8.01000023  55.75000000
C    14.04999924   7.60999966  54.58000183
C    15.42000008   7.36999989  54.61000061
C     5.44000053   7.09999990  55.24000168
H     5.13967848   7.47182655  54.26038361
H    10.00000000   7.00999975  52.88000107
H    11.11999989   8.89999962  57.29999924
H     8.84000015   9.04999924  57.81999969
H     6.52999973   8.30999947  57.57999802
H     7.37999964   6.90000010  53.61000061
H    15.88000107   6.78999996  53.81999969
H     4.76999998   7.55000019  55.98999786
H     5.40999985   6.00000000  55.26000214
S    17.61000061   8.82999992  52.25999832
C    20.23999977   9.26000023  51.44000244
C    19.00000000   8.73999977  51.17000198
C    18.60000038   8.27000046  49.87999725
C    19.52999878   8.18000031  48.86000061
C    20.89999962   8.36999989  49.16999817
C    21.97000122   8.10000038  48.27000046
C    23.22000122   8.59000015  48.54999924
C    23.54999924   9.19000053  49.79999924
C    22.55000114   9.35000038  50.72999954
C    21.19999886   9.02999973  50.41999817
C    17.15999985   8.13000011  49.73999786
C    16.48999977   8.32999992  50.97999954
C    15.11999989   8.60000038  51.00999832
C    24.96999931   9.65999985  50.04000092
H    25.41872787   9.04032707  50.81636810
H    20.52000046   9.51000023  52.45999908
H    19.40000153   7.78999996  47.85999680
H    21.81999969   7.60999966  47.30999756
H    24.03000069   8.34999943  47.85999680
H    22.75000000   9.77000046  51.70999908
H    14.63000107   9.06000042  51.86000061
H    25.48000145   9.56999969  49.08000183
H    24.84999847  10.65999985  50.47999954
S    13.94999981   7.73999977  47.28000259
C    11.23999977   7.69000006  47.95999908
C    12.53999901   7.88000011  48.36000061
C    12.89000034   8.23999977  49.69999695
C    11.85999966   8.56000042  50.56999969
C    10.51000023   8.34999943  50.19000244
C     9.39999962   8.60999966  51.04000092
C     8.10000038   8.27999973  50.72999954
C     7.78999996   7.86000013  49.40999985
C     8.80999947   7.73999977  48.48999786
C    10.17000008   7.94000053  48.86000061
C    14.32999992   8.31999969  49.89999771
C    14.98999977   7.92000008  48.70999908
C    16.36999893   7.76000023  48.64999771
C     6.38000011   7.46000004  49.03999710
H     5.98284054   8.03446388  48.20312500
H    11.03999996   7.30000019  46.95999908
H    12.10000038   9.02999973  51.52000046
H     9.63999939   8.93999958  52.04000092
H     7.26000023   8.48999977  51.38000107
H     8.55000019   7.26999998  47.55000305
H    16.84000015   7.50999975  47.70000076
H     5.65999985   7.57999992  49.86000061
H     6.38999987   6.38000011  48.83999634
