96

S    16.93000031   8.97999954  58.08000183
C    19.60000038   9.06000042  57.31999969
C    18.29000092   8.86999989  56.95000076
C    17.86000061   8.30999947  55.70000076
C    18.85000038   7.99000025  54.79000092
C    20.20999908   8.26000023  55.07999802
C    21.32999802   8.05000019  54.22000122
C    22.63000107   8.34000015  54.54000092
C    23.01000214   8.82000065  55.83000183
C    21.97000122   9.01000023  56.70000076
C    20.61000061   8.73999977  56.37000275
C    16.40999985   8.21000004  55.65000153
C    15.72999954   8.69999981  56.79999924
C    14.34999943   8.67000008  56.90000153
C    24.38999939   9.30999947  56.20999908
H    24.93780327   8.68393993  56.91431427
H    19.93000031   9.44000053  58.27999878
H    18.59000015   7.55000019  53.82999802
H    21.09000015   7.82000017  53.18999863
H    23.38999939   8.23000050  53.76999664
H    22.13000107   9.52999973  57.63999939
H    13.78000069   8.93000031  57.78999710
H    24.93000031   9.59000015  55.30000305
H    24.23000145  10.26000023  56.72999954
S    13.20000076   7.13000011  53.36999893
C    10.50000000   7.17999983  54.01000214
C    11.77999973   7.57999992  54.33000183
C    12.15000057   8.18000031  55.58000183
C    11.10000038   8.43000031  56.44000244
C     9.75000000   8.14000034  56.13999939
C     8.76999950   8.30000019  57.15999985
C     7.44999981   8.02999973  56.86999893
C     7.13000011   7.37999964  55.65000153
C     8.06999969   7.14999962  54.66999817
C     9.43000031   7.51999950  54.87999725
C    13.59000015   8.21000004  55.80999756
C    14.26000023   7.69000006  54.68000031
C    15.64000034   7.77999973  54.55999756
C     5.71000004   6.90000010  55.47000122
H     5.31814528   7.32035303  54.54379654
H    10.43000031   6.48999977  53.18000031
H    11.28000069   8.78000069  57.45999908
H     9.00000000   8.67000008  58.15000153
H     6.63999987   8.38000011  57.50000000
H     7.78999996   6.71999979  53.70999908
H    16.13000107   7.26999998  53.73000336
H     5.19000006   7.13000011  56.40999603
H     5.82000017   5.82000017  55.31000137
S    17.45000076   9.52000046  52.15000153
C    20.09000015   9.72000027  51.30000305
C    18.79999924   9.31999969  51.03000259
C    18.44000053   8.75000000  49.77000427
C    19.45000076   8.47999954  48.86000061
C    20.79000092   8.88000011  49.09000015
C    21.86000061   8.63000011  48.18000031
C    23.18000031   8.90999985  48.40999985
C    23.45000076   9.67000008  49.59000015
C    22.46999931   9.92000008  50.51000214
C    21.11999893   9.50000000  50.34999847
C    16.98999977   8.60999966  49.68000031
C    16.32999992   9.11000061  50.83000183
C    14.94999981   9.15000057  50.96000290
C    24.89999962   9.94999981  49.93999863
H    25.22801399   9.24405670  50.70298767
H    20.29999924  10.26000023  52.22000122
H    19.22000122   7.85000038  48.01000214
H    21.55999947   8.26000023  47.19999695
H    23.94000053   8.56000042  47.71999741
H    22.72000122  10.36000061  51.46999741
H    14.40000057   9.22999954  51.88999939
H    25.51000214   9.94000053  49.02999878
H    24.92000198  10.97000027  50.34999847
S    13.66000080   8.07999992  47.37999725
C    10.93999958   8.05000019  48.08000183
C    12.23999977   8.31999969  48.43000031
C    12.68000031   8.71999931  49.72999954
C    11.71000004   8.78000069  50.70999908
C    10.34999943   8.55000019  50.40000153
C     9.31999969   8.71000004  51.37000275
C     8.01999950   8.32999992  51.13999939
C     7.67000008   7.81000042  49.86999893
C     8.61999989   7.62000036  48.88999939
C     9.94000053   8.10999966  49.09000015
C    14.13000011   8.86999989  49.85000229
C    14.80000019   8.36000061  48.70999908
C    16.18000031   8.27000046  48.59000397
C     6.26999950   7.31999969  49.56999969
H     5.80256128   7.89367437  48.76968765
H    10.53999996   7.67000008  47.14000320
H    11.89000034   9.11000061  51.72999954
H     9.64999962   8.93000031  52.37999725
H     7.36000013   8.32999992  52.01000214
H     8.39999962   7.00000000  48.02000046
H    16.69000053   8.11999989  47.63999939
H     5.72000027   7.35000038  50.51000214
H     6.19000006   6.26999950  49.26000214
