96

S    16.79000092   8.75000000  58.27999878
C    19.51000023   9.01000023  57.62000275
C    18.22999954   8.69000053  57.23999786
C    17.92000008   8.10000038  55.97000122
C    18.97999954   7.85000038  55.12000275
C    20.30999947   8.25000000  55.40999985
C    21.40999985   8.01999950  54.54000092
C    22.67999840   8.39999962  54.92000198
C    22.89999962   9.06000042  56.14999771
C    21.86000061   9.35999966  57.01000214
C    20.55000114   8.93000031  56.65000153
C    16.50000000   7.86000013  55.83000183
C    15.73999977   8.36000061  56.90999985
C    14.37000084   8.60000038  56.93999863
C    24.25000000   9.57999992  56.56999969
H    24.70532608   8.98238564  57.35970688
H    19.63999939   9.25000000  58.67000198
H    18.79999924   7.20000029  54.26000214
H    21.27000046   7.40999985  53.64999771
H    23.44000053   8.25000000  54.15999985
H    22.11000061   9.75000000  57.98999786
H    13.92000008   8.98999977  57.84999847
H    24.77999878   9.71000004  55.61999893
H    24.18000031  10.62000084  56.91999817
S    13.34000015   7.28999996  53.37999725
C    10.57000065   7.31999969  54.02000046
C    11.87999916   7.55999994  54.34999847
C    12.18000031   7.83999968  55.72999954
C    11.17000008   8.01000023  56.65999985
C     9.85999966   7.59999990  56.30000305
C     8.76999950   7.85000038  57.18000031
C     7.44000006   7.69999981  56.86000061
C     7.11999989   7.20000029  55.58000183
C     8.13000011   7.04999971  54.65000153
C     9.48999977   7.35000038  54.93999863
C    13.60999966   8.01999950  55.90999985
C    14.35999966   7.51999950  54.81999969
C    15.73999977   7.53000021  54.68999863
C     5.66999960   7.11999989  55.15999603
H     5.37970018   7.52358723  54.18997192
H    10.44999981   7.07000017  52.97000122
H    11.39000034   8.47999954  57.61000061
H     9.04999924   8.34000015  58.11000061
H     6.67000008   8.22000027  57.43999863
H     7.96999979   6.84999990  53.59000397
H    16.27000046   7.36999989  53.75999832
H     5.09999990   7.62000036  55.96000290
H     5.36000013   6.06999969  55.19000244
S    17.38999939   9.06000042  52.25000000
C    20.00999832   9.40999985  51.45999908
C    18.73999977   9.01000023  51.10000229
C    18.34000015   8.67000008  49.77000427
C    19.40000153   8.53999996  48.88999939
C    20.76000023   8.78999996  49.16999817
C    21.84999847   8.59000015  48.27000046
C    23.13999939   8.89999962  48.61000061
C    23.40999985   9.40999985  49.91000366
C    22.39999962   9.56999969  50.83000183
C    21.04999924   9.25000000  50.50000000
C    16.88999939   8.51000023  49.68999863
C    16.25000000   8.75000000  50.93000031
C    14.88000011   9.00000000  51.00000000
C    24.79999924   9.94000053  50.18000031
H    25.25712013   9.31145859  50.94424820
H    20.27000046   9.80000019  52.43999863
H    19.15999985   8.34000015  47.84999847
H    21.53000069   8.09000015  47.36000061
H    23.94000053   8.97000027  47.87000275
H    22.53999901  10.00000000  51.81999969
H    14.37000084   9.31999969  51.90000153
H    25.45000076  10.00000000  49.29999924
H    24.56000137  10.92000008  50.59999847
S    13.67000008   8.06999969  47.31999969
C    11.02000046   7.67000008  48.02000046
C    12.27000046   8.10999966  48.40999985
C    12.64000034   8.53999996  49.72000122
C    11.61999893   8.73999977  50.63000107
C    10.27999973   8.42000008  50.28999710
C     9.21000004   8.55000019  51.22000122
C     7.90000010   8.38000011  50.83000183
C     7.59999990   7.79999971  49.56999969
C     8.63000011   7.63999987  48.68000031
C    10.00000000   7.90999985  48.97999573
C    14.07999992   8.69000053  49.88999939
C    14.73999977   8.25000000  48.72000122
C    16.11999893   8.23999977  48.55999756
C     6.19999981   7.39000034  49.15000153
H     5.69928217   7.93363619  48.34885025
H    10.82999992   7.04999971  47.15000153
H    11.89000034   8.98999977  51.65000153
H     9.46000004   8.82000065  52.23999786
H     7.11000013   8.47000027  51.56000137
H     8.39999962   7.26000023  47.69000244
H    16.54000092   7.97999954  47.58999634
H     5.65999985   7.51999950  50.10000229
H     6.39999962   6.32000017  48.99000168
