96

S    16.80999947   8.98999977  58.29999924
C    19.47000122   9.19999981  57.67000198
C    18.22000122   8.82000065  57.23999786
C    17.92000008   8.31999969  55.93000031
C    18.93000031   8.26000023  54.98000336
C    20.22000122   8.60999966  55.43000031
C    21.31000137   8.56999969  54.51000214
C    22.56000137   9.02000046  54.87999725
C    22.80999947   9.61999989  56.13999939
C    21.83000183   9.57999992  57.09999847
C    20.53999901   9.11000061  56.73999786
C    16.47999954   8.22000027  55.73999786
C    15.77999973   8.60000038  56.90999985
C    14.39000034   8.50000000  57.01000214
C    24.18000031  10.14000034  56.51000214
H    24.81209755   9.37296104  56.95744324
H    19.71999931   9.56999969  58.66000366
H    18.76000023   7.82999992  54.00000000
H    21.14999962   8.23999977  53.48999786
H    23.35000038   9.02999973  54.13000107
H    21.98999786  10.05000019  58.06999969
H    13.90999985   8.67000008  57.97000122
H    24.59000015  10.57999992  55.59000015
H    24.04000092  11.03999996  57.11000061
S    13.26000023   7.31999969  53.40999985
C    10.52999973   7.16000032  54.13999939
C    11.82999992   7.49000025  54.43999863
C    12.18999958   8.02999973  55.72000122
C    11.18000031   8.26000023  56.62000275
C     9.82999992   8.02999973  56.25000000
C     8.76000023   8.27999973  57.15999985
C     7.46999979   7.85000038  56.93999863
C     7.11000013   7.16000032  55.75000000
C     8.10999966   6.94000006  54.82999802
C     9.46000004   7.32999992  55.06000137
C    13.63000011   8.22000027  55.86999893
C    14.34000015   7.88999987  54.68999863
C    15.72999954   7.76999998  54.64000320
C     5.72000027   6.60000038  55.52999878
H     5.15721321   7.17703438  54.79623795
H    10.27999973   6.72999954  53.16999817
H    11.50000000   8.51000023  57.63000107
H     9.00000000   8.78000069  58.09000015
H     6.65999985   8.14999962  57.60000229
H     7.82999992   6.51000023  53.87000275
H    16.20000076   7.32999992  53.76999664
H     5.18000031   6.65999985  56.47999573
H     5.86999989   5.55000019  55.27000046
S    17.06999969   9.38000011  52.22000122
C    19.73999977   9.51000023  51.50000000
C    18.47999954   9.06000042  51.18999863
C    18.05999947   8.57999992  49.91000366
C    19.03000069   8.47000027  48.93000031
C    20.38999939   8.75000000  49.20999908
C    21.48999977   8.55000019  48.33000183
C    22.80999947   8.76000023  48.66000366
C    23.12000084   9.32999992  49.92000198
C    22.09000015   9.55000019  50.79999924
C    20.72999954   9.25000000  50.52000046
C    16.61000061   8.43999958  49.86000061
C    15.88999939   8.85999966  51.00999832
C    14.50000000   8.84000015  50.98999786
C    24.46000099   9.94999981  50.26000214
H    25.00300789   9.35698032  50.99591827
H    19.95000076  10.08999920  52.39999771
H    18.86999893   8.14999962  47.90000153
H    21.40000153   8.27999973  47.29000092
H    23.48999977   8.73000050  47.81000137
H    22.26000023  10.07999992  51.73999786
H    13.89000034   9.21000004  51.81000137
H    24.97999954  10.03000069  49.29999924
H    24.23999977  11.00000000  50.50000000
S    13.45000076   7.51999950  47.37999725
C    10.71000004   7.69000006  47.98999786
C    12.02000046   7.82000017  48.37999725
C    12.32999992   8.23999977  49.71000290
C    11.31999969   8.48999977  50.61999893
C     9.96999931   8.30000019  50.27000046
C     8.89999962   8.39999962  51.19999695
C     7.59000015   8.15999985  50.84999847
C     7.36000013   7.51999950  49.61000061
C     8.36999989   7.27999973  48.69999695
C     9.68000031   7.76999998  48.95999908
C    13.76999950   8.38999939  49.87999725
C    14.50000000   7.95000029  48.75000000
C    15.88000107   8.11999989  48.70999908
C     5.92999983   7.14999962  49.23999786
H     5.56748629   7.75418949  48.40834808
H    10.36999893   7.21000004  47.06999969
H    11.57999992   8.63000011  51.66999817
H     9.07999992   8.82999992  52.18999863
H     6.80999994   8.40999985  51.55000305
H     8.10999966   6.71999979  47.81000137
H    16.31000137   8.03999996  47.71999741
H     5.42999983   7.26999998  50.20000076
H     5.75999975   6.11999989  48.93000031
