96

S    16.80999947   8.59000015  58.40000153
C    19.50000000   8.56999969  57.69000244
C    18.22000122   8.17000008  57.41000366
C    17.93000031   7.67000008  56.10000229
C    18.96999931   7.53999996  55.20000076
C    20.30999947   7.94000053  55.45000076
C    21.34000015   7.94000053  54.45999908
C    22.62000084   8.30999947  54.80999756
C    22.89999962   8.89000034  56.06999969
C    21.87999916   8.97000027  56.98999786
C    20.55999947   8.50000000  56.75000000
C    16.48999977   7.63000011  55.94999695
C    15.75000000   8.10000038  57.06999969
C    14.37000084   8.18000031  57.15000153
C    24.27000046   9.48000050  56.36000061
H    24.81077957   8.78979492  57.00751495
H    19.80999947   9.15999985  58.54999924
H    18.79999924   7.26999998  54.15999985
H    20.98999977   7.76000023  53.44999695
H    23.34000015   8.38000011  54.00000000
H    21.94999886   9.48999977  57.94000244
H    13.80000019   8.48999977  58.02000046
H    24.79000092   9.71000004  55.41999817
H    24.21999931  10.39999962  56.95999908
S    13.36999989   7.17999983  53.40000153
C    10.71000004   6.71000004  54.13999939
C    11.95000076   7.22000027  54.47000122
C    12.22000027   7.71000004  55.79000092
C    11.16000080   7.99000025  56.63000107
C     9.85999966   7.59999990  56.20999908
C     8.78000069   7.81000042  57.11000061
C     7.50999975   7.36999989  56.79999924
C     7.26000023   6.67999983  55.59000015
C     8.27999973   6.40999985  54.71000290
C     9.61000061   6.84000015  55.01999664
C    13.63999939   7.90999985  55.97999954
C    14.37000084   7.60999966  54.79999924
C    15.73999977   7.39000034  54.78000259
C     5.84999990   6.23000050  55.27000046
H     5.40141630   6.89219570  54.52947998
H    10.51000023   6.24000025  53.18999863
H    11.38000011   8.56999969  57.52999878
H     9.15000057   8.21000004  58.04999924
H     6.75000000   7.67000008  57.51999664
H     8.05999947   6.01999998  53.72000122
H    16.26000023   7.13999987  53.86000061
H     5.26000023   6.12999964  56.18999863
H     5.89999962   5.21000004  54.85000229
S    13.61999989   5.13000011  50.63000107
C    11.03000069   4.32999992  51.09000397
C    12.35000038   4.21000004  51.45000076
C    12.86000061   3.68999982  52.68000031
C    11.92000008   3.19999981  53.55999756
C    10.54999924   3.16000009  53.18000031
C     9.55999947   2.59000015  54.02000046
C     8.22000027   2.64999986  53.70999908
C     7.75000000   3.32999992  52.55000305
C     8.67999935   3.86000013  51.69000244
C    10.06999969   3.81999993  52.00000000
C    14.28999996   3.84999990  52.90999985
C    14.81999969   4.61000013  51.84000015
C    16.15999985   4.97000027  51.79999924
C     6.28000021   3.51999998  52.25000000
H     5.92328024   3.24175811  51.25831985
H    10.60999966   4.88000011  50.25000000
H    12.20000076   2.59000015  54.41999817
H     9.82999992   2.29999995  55.02999878
H     7.48000050   2.09999990  54.29000092
H     8.43999958   4.30000019  50.72000122
H    16.51000023   5.44000053  50.87999725
H     5.69999981   3.09999990  53.08000183
H     6.11999989   4.59000015  52.43000031
S    17.64999962   3.25000000  55.01999664
C    20.28000069   4.05000019  54.40999985
C    18.94000053   4.00999975  54.06999969
C    18.45999908   4.59999990  52.85999680
C    19.43000031   5.05999994  51.98999786
C    20.81999969   5.09999990  52.25999832
C    21.81999969   5.59999990  51.38000107
C    23.12999916   5.68000031  51.79999924
C    23.57000160   5.17000008  53.04999924
C    22.62000084   4.63999987  53.89999771
C    21.24000168   4.67999983  53.56999969
C    17.01000023   4.46999979  52.78999710
C    16.42000008   3.67000008  53.80000305
C    15.08999920   3.30000019  53.92000198
C    24.94999886   5.50000000  53.54999924
H    25.23549843   5.15026426  54.54210663
H    20.58000183   3.61000013  55.34999847
H    19.07999992   5.42000008  51.03000259
H    21.54000092   6.11000013  50.45999908
H    23.82999802   6.24000025  51.18999863
H    22.90999985   4.41000032  54.92000198
H    14.70000076   2.71000004  54.75000000
H    24.97999954   6.60000038  53.46000290
H    25.69999886   5.07000017  52.88000107
