96

S    16.84000015   8.50000000  58.23999786
C    19.47999954   8.78000069  57.37999725
C    18.20999908   8.28999996  57.12999725
C    17.80999947   7.90000010  55.80999756
C    18.81000137   7.73999977  54.86999893
C    20.12000084   8.21000004  55.08999634
C    21.11999893   8.01999950  54.09000015
C    22.42000198   8.31999969  54.43999863
C    22.70000076   9.03999996  55.63000107
C    21.77000046   9.28999996  56.60999680
C    20.48999977   8.69999981  56.38999939
C    16.35000038   7.86999989  55.75000000
C    15.67000008   8.28999996  56.91999817
C    14.28999996   8.45000076  56.91999817
C    24.13999939   9.42000008  55.90000153
H    24.58570290   8.62763977  56.50134659
H    19.69000053   9.35000038  58.27999878
H    18.63999939   7.00999975  54.09000015
H    20.76999855   7.49000025  53.20999908
H    23.22000122   8.18000031  53.72000122
H    21.97999954   9.89000034  57.49000168
H    13.78999901   8.78999996  57.81999969
H    24.67000008   9.59000015  54.95999908
H    24.17000008  10.36999893  56.45999908
S    13.12999916   7.23000002  53.31999969
C    10.36999893   7.44999981  53.88999939
C    11.68000031   7.64999962  54.27000046
C    12.06999969   7.99000025  55.59999847
C    11.06999969   8.19000053  56.52999878
C     9.72000027   7.96000004  56.18999863
C     8.71999931   7.99000025  57.21000290
C     7.40999985   7.72000027  56.88999939
C     7.00000000   7.48000050  55.56000137
C     7.95000029   7.46000004  54.55999756
C     9.34000015   7.65999985  54.82999802
C    13.50999928   8.09000015  55.80999756
C    14.22000027   7.62000036  54.66999817
C    15.59999943   7.57999992  54.61000061
C     5.55999994   7.18999958  55.19000244
H     5.21818590   7.75256824  54.32122040
H    10.11000061   7.13000011  52.88000107
H    11.28000069   8.31999969  57.58999634
H     9.03999996   8.09000015  58.23999786
H     6.71999979   7.57000017  57.71999741
H     7.69999981   7.25000000  53.53000259
H    16.10000038   7.14999962  53.74000168
H     4.78999996   7.46000004  55.91999817
H     5.46999979   6.12999964  54.95999908
S    17.10000038   9.25000000  52.23999786
C    19.78000069   9.55999947  51.56999969
C    18.54999924   9.02000046  51.25000000
C    18.27000046   8.45000076  49.97000122
C    19.32999992   8.38000011  49.06999969
C    20.59999847   8.93999958  49.33000183
C    21.63000107   8.90999985  48.34999847
C    22.88999939   9.35000038  48.67000198
C    23.18000031   9.88000011  49.95999908
C    22.14999962  10.00000000  50.86999893
C    20.85000038   9.48000050  50.63999939
C    16.84000015   8.31999969  49.72000122
C    16.10999870   8.76999950  50.84999847
C    14.73000050   8.94999981  50.91999817
C    24.56999969  10.38000011  50.27000046
H    25.10559654   9.70871925  50.94128036
H    19.79999924  10.14999962  52.48000336
H    19.17000008   8.05000019  48.04999924
H    21.42999840   8.50000000  47.36000061
H    23.71000099   9.39999962  47.95999908
H    22.23999977  10.59000015  51.77999878
H    14.26000023   9.30000019  51.83000183
H    25.12000084  10.55999947  49.33000183
H    24.46000099  11.32999992  50.79999924
S    13.55999947   7.92999983  47.28000259
C    10.88000107   8.01999950  47.93000031
C    12.17000008   8.30999947  48.30999756
C    12.53000069   8.69000053  49.65000153
C    11.50000000   8.82000065  50.56000137
C    10.13000011   8.63000011  50.24000168
C     8.97000027   8.80000019  51.04000092
C     7.69000006   8.65999985  50.54000092
C     7.49000025   8.10999966  49.25000000
C     8.56000042   7.85000038  48.43000031
C     9.86999989   8.11999989  48.92000198
C    13.97999954   8.65999985  49.78000259
C    14.68000031   8.23000050  48.61999893
C    16.06999969   8.14999962  48.56999969
C     6.11999989   7.57999992  48.89999771
H     5.56484652   8.19921017  48.19538116
H    10.65999985   7.40000010  47.05999756
H    11.87000084   9.00000000  51.56000137
H     9.19000053   9.04999924  52.06999969
H     6.83000040   8.89999962  51.16000366
H     8.52000046   7.42999983  47.43000031
H    16.64999962   7.76999998  47.72999573
H     5.55999994   7.63000011  49.84000397
H     6.19000006   6.51000023  48.63999939
