96

S    17.13000107   8.92000008  58.02999878
C    19.84000015   8.89999962  57.38999939
C    18.54999924   8.56999969  57.02999878
C    18.22999954   8.10000038  55.72000122
C    19.25000000   8.01999950  54.79000092
C    20.55999947   8.46000004  55.11000061
C    21.63999939   8.39999962  54.19000244
C    22.93999863   8.76999950  54.47000122
C    23.22999954   9.15999985  55.79999924
C    22.25000000   9.15000057  56.77000046
C    20.89999962   8.85000038  56.45999908
C    16.79000092   7.97999954  55.54999924
C    16.07999992   8.43999958  56.69000244
C    14.70999908   8.67999935  56.70000076
C    24.70000076   9.44000053  56.05999756
H    25.12752342   8.73458576  56.77253723
H    19.88999939   9.23999977  58.43000031
H    19.09000015   7.73000002  53.75999832
H    21.60000038   7.96000004  53.20000076
H    23.75000000   8.55000019  53.79000092
H    22.52000046   9.51000023  57.76000214
H    14.27000046   8.96000004  57.64999771
H    25.31999969   9.42000008  55.15999603
H    24.67000008  10.43000031  56.53999710
S    13.56999969   7.40999985  53.09999847
C    10.93000031   6.97000027  53.95000076
C    12.17000008   7.51999950  54.18000031
C    12.53000069   8.09000015  55.45000076
C    11.52999973   8.19999981  56.39999771
C    10.19999981   7.81000042  56.16000366
C     9.13999939   7.95000029  57.11000061
C     7.88000011   7.46000004  56.88999939
C     7.63999987   6.93000031  55.59999847
C     8.59000015   6.69000053  54.64000320
C     9.92000008   7.11000013  54.93000031
C    13.96000004   8.36000061  55.56000137
C    14.65000057   7.88000011  54.41999817
C    16.03999901   7.73999977  54.38999939
C     6.19000006   6.63000011  55.27000046
H     5.82010221   7.12793875  54.37371063
H    10.72999954   6.57000017  52.95999908
H    11.89000034   8.60999966  57.34000397
H     9.39999962   8.43999958  58.04000092
H     7.03999996   7.75000000  57.52999878
H     8.38000011   6.37000036  53.61999893
H    16.52000046   7.53000021  53.44999695
H     5.55000019   6.76999998  56.13999939
H     6.30999994   5.55000019  55.13999939
S    17.81999969   9.48000050  51.84000015
C    20.50000000   9.36999989  51.19999695
C    19.20999908   9.04999924  50.83000183
C    18.88000107   8.52999973  49.54000092
C    19.88000107   8.36000061  48.60000229
C    21.18999863   8.80999947  48.88000107
C    22.26000023   8.64999962  47.95000076
C    23.50000000   9.21000004  48.15000153
C    23.80000114   9.77000046  49.41999817
C    22.85000038   9.71000004  50.40999985
C    21.51000023   9.26000023  50.20999908
C    17.43999863   8.52000046  49.36999893
C    16.75000000   9.07999992  50.47999954
C    15.36999893   9.19000053  50.61999893
C    25.23999977  10.08999920  49.75000000
H    25.63715935   9.51553631  50.58687210
H    20.79000092   9.77999973  52.15999985
H    19.70999908   8.03999996  47.56999969
H    22.01999855   8.11999989  47.02999878
H    24.21999931   9.13999939  47.32999802
H    23.16999817   9.98999977  51.40999603
H    14.93000031   9.35000038  51.59999847
H    25.76999855   9.77000046  48.85000229
H    25.40999985  11.16000080  49.92000198
S    14.15999985   8.00000000  47.08000183
C    11.44999981   7.96000004  47.78999710
C    12.74000072   8.27999973  48.11000061
C    13.12000084   8.67999935  49.43000031
C    12.13000107   8.78999996  50.40000153
C    10.80000019   8.38999939  50.13999939
C     9.85000038   8.36000061  51.18999863
C     8.56999969   7.94000053  50.93000031
C     8.18000031   7.51999950  49.62999725
C     9.10000038   7.60999966  48.61000061
C    10.47000027   7.92000008  48.81999969
C    14.55000019   8.89999962  49.51000214
C    15.27999973   8.47000027  48.37999725
C    16.64999962   8.25000000  48.23999786
C     6.78999996   7.03999996  49.23999786
H     6.36982536   7.68806601  48.47086716
H    11.21000099   7.69999981  46.76000214
H    12.32999992   9.22999954  51.37000275
H    10.11000061   8.73000050  52.18000031
H     7.77999973   7.86000013  51.66999817
H     8.69999981   7.48000050  47.60000229
H    17.15999985   7.97999954  47.32999802
H     5.98999977   7.00999975  49.98000336
H     6.83000040   6.01999998  48.86000061
