96

S    17.25000000   9.18000031  58.13000107
C    19.96999931   9.30999947  57.48000336
C    18.70000076   8.90999985  57.14000320
C    18.35000038   8.32999992  55.86999893
C    19.37000084   8.30999947  54.93999863
C    20.71000099   8.60999966  55.27999878
C    21.80000114   8.31999969  54.40999985
C    23.03999901   8.89000034  54.61999893
C    23.36000061   9.42000008  55.89000320
C    22.36000061   9.64999962  56.81000137
C    21.02999878   9.22000027  56.55000305
C    16.94000053   8.01000023  55.77000046
C    16.22999954   8.30999947  56.95999908
C    14.85000038   8.30000019  57.04000092
C    24.77999878   9.81999969  56.22000122
H    25.19746399   9.24686909  57.04785538
H    20.10000038   9.77000046  58.46000290
H    19.18000031   8.06999969  53.89999771
H    21.65999985   7.76000023  53.48999786
H    23.77000046   8.86999989  53.81000137
H    22.63000107  10.06000042  57.77999878
H    14.37000084   8.64000034  57.95000076
H    25.42000008   9.90999985  55.34000015
H    24.71999931  10.84000015  56.60999680
S    13.73999977   7.35000038  53.34000015
C    10.98999977   7.30999994  54.00000000
C    12.28999996   7.55000019  54.34999847
C    12.69000053   8.03999996  55.63999939
C    11.67000008   8.38999939  56.50000000
C    10.31000042   8.02999973  56.29000092
C     9.30999947   8.18000031  57.29000092
C     8.01999950   7.76999998  57.04999924
C     7.67000008   7.20000029  55.79000092
C     8.64000034   7.11000013  54.81999969
C    10.00000000   7.50999975  54.99000168
C    14.11999893   8.02999973  55.86999893
C    14.82999992   7.63999987  54.71000290
C    16.21999931   7.57000017  54.65000153
C     6.21000004   6.88000011  55.56000137
H     5.79542255   7.50186586  54.76658630
H    10.67999935   6.97000027  53.01000214
H    11.77999973   8.73999977  57.52999878
H     9.55999947   8.64999962  58.23999786
H     7.22000027   7.92999983  57.77000046
H     8.38999939   6.53999996  53.93000031
H    16.82999992   7.26999998  53.80000305
H     5.49000025   6.98999977  56.37000275
H     6.11000013   5.84000015  55.22999573
S    13.53000069   5.26999998  50.45000076
C    10.80000019   4.88000011  51.16000366
C    12.13999939   4.67999983  51.38999939
C    12.61999989   4.01999998  52.56999969
C    11.72999954   3.72000003  53.57999802
C    10.34999943   4.00999975  53.47999954
C     9.43000031   3.40999985  54.38000107
C     8.10999966   3.28999996  54.01000214
C     7.62000036   3.78999996  52.77000046
C     8.51000023   4.46000004  51.95999908
C     9.90999985   4.48000002  52.18999863
C    14.06999969   3.97000027  52.70999908
C    14.70000076   4.65000010  51.63999939
C    16.02000046   5.05000019  51.50000000
C     6.30999994   3.25000000  52.22999954
H     5.81019545   3.80692434  51.43745422
H    10.38000011   5.38000011  50.28999710
H    12.07999992   3.14000010  54.43999863
H     9.82999992   2.76999998  55.15999603
H     7.44000006   2.68000007  54.59000015
H     8.34000015   4.76999998  50.93000031
H    16.43000031   5.63000011  50.68000031
H     6.44999981   2.25999999  51.79999924
H     5.77000046   3.15000010  53.18000031
S    17.39999962   3.56999993  54.93000031
C    20.05000114   4.44000006  54.36000061
C    18.71000099   4.38000011  54.05000305
C    18.27999878   4.94000006  52.81000137
C    19.15999985   5.50000000  51.90000153
C    20.55000114   5.47999954  52.15999985
C    21.48999977   6.06999969  51.25999832
C    22.82999992   6.01999998  51.55000305
C    23.25000000   5.26000023  52.68000031
C    22.37999916   4.76999998  53.61999893
C    20.98999977   4.92999983  53.40999985
C    16.86000061   4.72000027  52.56999969
C    16.27000046   3.97000027  53.61999893
C    14.94999981   3.53999996  53.70999908
C    24.73999977   5.13999987  52.90000153
H    25.10163116   5.63635635  53.80052948
H    20.40999985   4.07999992  55.31999969
H    18.81999969   6.10000038  51.05999756
H    21.11000061   6.51000023  50.34000015
H    23.47999954   6.51000023  50.83000183
H    22.72000122   4.33999968  54.55999756
H    14.60999966   2.96000004  54.55999756
H    25.29000092   5.59000015  52.06999969
H    24.96000099   4.05999994  52.85999680
