96

S    16.97999954   8.64000034  58.31999969
C    19.64999962   8.85000038  57.55000305
C    18.36000061   8.51000023  57.21000290
C    18.02999878   7.95000029  55.93999863
C    19.01000023   7.81000042  54.98000336
C    20.32999992   8.19000053  55.31999969
C    21.44000053   8.09000015  54.43000031
C    22.72999954   8.51000023  54.64000320
C    23.02000046   8.96000004  55.94999695
C    22.01000023   9.22000027  56.84999847
C    20.69000053   8.73999977  56.59999847
C    16.57999992   7.82000017  55.77999878
C    15.90999985   8.19000053  56.97999954
C    14.52000046   8.32999992  57.01000214
C    24.43000031   9.43000031  56.22000122
H    24.87828827   8.81805134  57.00272369
H    19.85999870   9.10000038  58.59000397
H    18.75000000   7.40000010  54.01000214
H    21.24000168   7.63000011  53.46000290
H    23.57000160   8.42000008  53.95999908
H    22.13999939   9.64999962  57.84000015
H    14.14000034   8.71000004  57.95999908
H    25.06999969   9.42000008  55.33000183
H    24.41999817  10.44999981  56.63000107
S    13.36999989   7.16000032  53.40999985
C    10.69000053   7.17999983  54.10999680
C    11.97999954   7.50999975  54.45999908
C    12.38999939   8.13000011  55.68999863
C    11.38000011   8.47000027  56.58000183
C    10.06000042   8.05000019  56.30000305
C     9.04999924   8.14000034  57.29999924
C     7.76000023   7.71000004  57.12999725
C     7.37999964   7.09999990  55.90000153
C     8.32999992   6.98999977  54.91000366
C     9.68999958   7.35000038  55.10000229
C    13.83999920   8.15999985  55.80999756
C    14.52000046   7.67000008  54.65999985
C    15.90000057   7.50000000  54.61000061
C     5.95000029   6.69000053  55.61999893
H     5.48634291   7.33198643  54.87101364
H    10.46000004   6.75000000  53.13999939
H    11.50000000   8.97999954  57.52999878
H     9.30999947   8.39999962  58.33000183
H     7.09999990   7.82000017  57.97999954
H     7.97999954   6.67999983  53.92000198
H    16.36000061   7.37999964  53.63999939
H     5.38000011   6.67000008  56.56000137
H     5.98999977   5.68000031  55.20000076
S    17.01000023   9.48999977  52.25000000
C    19.72999954   9.48999977  51.66999817
C    18.45000076   9.19000053  51.25999832
C    18.15000153   8.67000008  49.95999908
C    19.17000008   8.56999969  49.02999878
C    20.51000214   8.80999947  49.41999817
C    21.57999992   8.52999973  48.52000427
C    22.84000015   9.02999973  48.75000000
C    23.12999916   9.61000061  50.00999832
C    22.13000107   9.72999954  50.96000290
C    20.78000069   9.35000038  50.72999954
C    16.70999908   8.46000004  49.87999725
C    15.93000031   8.85000038  50.98999786
C    14.56999969   9.15999985  51.00999832
C    24.54000092  10.06000042  50.33000183
H    25.13540077   9.32283974  50.86869812
H    19.97999954   9.96000004  52.61000061
H    18.89999962   8.15999985  48.06000137
H    21.40000153   7.90999985  47.64999771
H    23.64000130   8.71000004  48.09000015
H    22.36999893  10.21999931  51.90000153
H    14.00000000   9.48000050  51.88000107
H    25.07999802  10.31999969  49.41999817
H    24.41999817  10.90999985  51.02000427
S    13.55000019   7.76999998  47.43000031
C    10.85000038   7.34000015  48.18999863
C    12.11999989   7.81000042  48.47000122
C    12.46999931   8.43000031  49.71000290
C    11.47999954   8.64000034  50.65999985
C    10.14000034   8.30000019  50.35999680
C     9.07999992   8.48999977  51.29000092
C     7.77999973   8.19000053  50.93999863
C     7.50000000   7.50000000  49.73999786
C     8.48999977   7.26999998  48.81000137
C     9.82999992   7.63000011  49.12000275
C    13.88000011   8.73000050  49.86999893
C    14.61999989   8.34000015  48.73000336
C    16.01000023   8.21000004  48.68999863
C     6.06999969   7.11999989  49.38999939
H     5.55736494   7.81775379  48.72784805
H    10.71000004   6.80999994  47.23999786
H    11.71000004   9.15000057  51.59000015
H     9.25000000   8.97000027  52.25000000
H     7.05999947   8.53999996  51.68000031
H     8.26000023   6.91999960  47.81000137
H    16.45000076   8.05999947  47.70999908
H     5.47999954   6.91999960  50.28999710
H     6.15999985   6.15000010  48.87000275
