96

S    16.77000046   8.51000023  58.37999725
C    19.47999954   8.50000000  57.60000229
C    18.19000053   8.05000019  57.43000031
C    17.81999969   7.62000036  56.11999893
C    18.75000000   7.36999989  55.12000275
C    20.06999969   7.83999968  55.31999969
C    21.04000092   7.76000023  54.27999878
C    22.29000092   8.30000019  54.41999817
C    22.67999840   8.69999981  55.72000122
C    21.83000183   8.69999981  56.81000137
C    20.45999908   8.43000031  56.56999969
C    16.36999893   7.55999994  55.93999863
C    15.67999935   8.13000011  57.04000092
C    14.28999996   8.19999981  57.09999847
C    24.09000015   9.17000008  55.98999786
H    24.60860634   8.43116570  56.60095596
H    19.79999924   8.80999947  58.59000397
H    18.35000038   6.88000011  54.23999786
H    20.69999886   7.39000034  53.30999756
H    23.00000000   8.10999966  53.61000061
H    22.11000061   9.10000038  57.77999878
H    13.71999931   8.40999985  58.00000000
H    24.56000137   9.21000004  55.00000000
H    24.20999908  10.15999985  56.43000031
S    13.19000053   6.98000002  53.54000092
C    10.48999977   6.86999989  54.06999969
C    11.72999954   7.31999969  54.47999954
C    12.06999969   7.81000042  55.77999878
C    11.11999989   7.78999996  56.77999878
C     9.77999973   7.51999950  56.39999771
C     8.61999989   7.69000006  57.19999695
C     7.34000015   7.44999981  56.77000046
C     7.13000011   6.84000015  55.50000000
C     8.21000004   6.58999968  54.68000031
C     9.50000000   7.07000017  55.06000137
C    13.50999928   7.86000013  55.98999786
C    14.27000046   7.36000013  54.88999939
C    15.65000057   7.17999983  54.80999756
C     5.66999960   6.75000000  55.13000107
H     5.32909346   7.01278210  54.12858963
H    10.19000053   6.42000008  53.13000107
H    11.38000011   7.90000010  57.83000183
H     8.78000069   8.19000053  58.15999985
H     6.46000004   7.73000002  57.34000397
H     8.14000034   6.17999983  53.68000031
H    16.10000038   6.76999998  53.90999603
H     5.18000031   7.46999979  55.79000092
H     5.26000023   5.82000017  55.52999878
S    17.17000008   8.71999931  52.22000122
C    19.80999947   9.07999992  51.40999603
C    18.59000015   8.50000000  51.18000031
C    18.15999985   8.01000023  49.89999771
C    19.14999962   7.77999973  48.96999741
C    20.45999908   8.27000046  49.18000031
C    21.52000046   8.10000038  48.25000000
C    22.81999969   8.47999954  48.47000122
C    23.15000153   9.10000038  49.69999695
C    22.13999939   9.39999962  50.59000015
C    20.81000137   8.93999958  50.40999985
C    16.70999908   8.01000023  49.75999832
C    16.00000000   8.36999989  50.93000031
C    14.61999989   8.51000023  50.93000031
C    24.59000015   9.44000053  49.99000168
H    24.98953629   8.73367882  50.71772385
H    20.12000084   9.67000008  52.27000427
H    18.96000099   7.20000029  48.06000137
H    21.14000130   7.76999998  47.29000092
H    23.62999916   8.02999973  47.90000153
H    22.27999878   9.92999935  51.52999878
H    14.15999985   8.86999989  51.84000015
H    25.29999924   9.42000008  49.13999939
H    24.61000061  10.43000031  50.45999908
S    13.48999977   7.46999979  47.25999832
C    10.77999973   7.42000008  47.97000122
C    12.07999992   7.69000006  48.31999969
C    12.41000080   8.09000015  49.65999985
C    11.39999962   8.21000004  50.59000015
C    10.06000042   7.86000013  50.30000305
C     8.96000004   7.92999983  51.20999908
C     7.65999985   7.81000042  50.79000092
C     7.37999964   7.40000010  49.45999908
C     8.39999962   7.35000038  48.54000092
C     9.76000023   7.46000004  48.95000076
C    13.86000061   8.10000038  49.82999802
C    14.55999947   7.73000002  48.64999771
C    15.95000076   7.72000027  48.61999893
C     5.96000004   7.11000013  49.02999878
H     5.63217545   7.75852251  48.21756363
H    10.55999947   7.22000027  46.91999817
H    11.67000008   8.47999954  51.60999680
H     9.19999981   8.32999992  52.18999863
H     6.81999969   8.14000034  51.38999939
H     8.22000027   7.23999977  47.47000122
H    16.39000130   7.44000006  47.67000198
H     5.27999973   7.13000011  49.88999939
H     5.84999990   6.12999964  48.55999756
