96

S    16.62999916   8.85999966  58.20999908
C    19.40000153   8.78999996  57.54000092
C    18.09000015   8.43999958  57.29999924
C    17.78000069   7.94000053  56.00000000
C    18.72999954   7.83999968  55.00000000
C    20.10999870   8.03999996  55.30000305
C    21.19999886   7.85000038  54.40999985
C    22.47999954   8.14000034  54.80999756
C    22.80999947   8.64999962  56.10000229
C    21.77999878   8.80000019  57.00000000
C    20.43999863   8.51000023  56.60999680
C    16.34000015   7.88999987  55.79999924
C    15.55999947   8.27000046  56.91999817
C    14.18000031   8.43000031  56.84999847
C    24.23000145   9.02000046  56.44000244
H    24.72139168   8.30071831  57.09518814
H    19.70000076   9.13999939  58.52000427
H    18.40999985   7.51999950  54.02000046
H    20.94000053   7.71000004  53.36000061
H    23.31000137   7.86999989  54.15999985
H    21.94000053   9.22999954  57.97999954
H    13.59000015   8.67999935  57.72999573
H    24.86999893   9.01000023  55.54999924
H    24.23000145   9.98999977  56.95999908
S    13.25000000   7.09000015  53.23999786
C    10.55999947   6.84999990  53.92000198
C    11.79999924   7.35000038  54.22999954
C    12.05000019   7.96999979  55.50000000
C    11.05999947   8.11999989  56.45000076
C     9.75000000   7.71000004  56.11999893
C     8.67999935   7.85000038  57.04999924
C     7.40999985   7.40999985  56.72999954
C     7.17999983   6.84999990  55.45000076
C     8.19999981   6.63999987  54.54000092
C     9.52000046   7.02000046  54.86999893
C    13.48999977   8.07999992  55.68000031
C    14.27999973   7.69000006  54.56999969
C    15.65999985   7.55000019  54.61999893
C     5.77000046   6.51999998  55.01999664
H     5.45642185   7.11864996  54.16478348
H    10.44000053   6.30999994  52.97999954
H    11.23000050   8.43999958  57.48000336
H     8.96000004   8.18000031  58.04999924
H     6.54999971   7.57000017  57.36999893
H     8.07999992   6.17999983  53.55999756
H    16.17000008   7.31999969  53.69999695
H     5.05000019   6.65999985  55.83000183
H     5.72000027   5.46999979  54.71000290
S    17.17000008   9.10000038  52.25000000
C    19.93000031   9.31999969  51.59000015
C    18.63999939   8.97999954  51.25999832
C    18.30000114   8.51000023  49.94999695
C    19.31999969   8.51000023  49.02000046
C    20.65999985   8.85999966  49.29999924
C    21.68000031   8.73000050  48.30999756
C    23.00000000   8.96000004  48.60000229
C    23.34000015   9.26000023  49.94999695
C    22.36999893   9.40999985  50.90999985
C    20.97999954   9.21000004  50.65999985
C    16.87000084   8.34000015  49.73999786
C    16.11999893   8.76000023  50.86999893
C    14.73000050   8.85000038  50.86999893
C    24.76000023   9.61999989  50.30000305
H    25.25738716   9.00892258  51.05318832
H    20.13999939   9.73999977  52.57999802
H    19.13999939   7.96000004  48.09999847
H    21.38000107   8.43000031  47.30999756
H    23.78999901   8.82000065  47.87000275
H    22.55000114   9.94999981  51.84000015
H    14.18000031   9.15000057  51.76000214
H    25.31999969   9.42000008  49.36999893
H    24.76000023  10.69000053  50.54000092
S    13.68999958   7.65999985  47.23999786
C    10.98999977   7.67000008  47.84999847
C    12.27000046   7.99000025  48.23999786
C    12.58999920   8.47000027  49.54999924
C    11.57999992   8.59000015  50.48999786
C    10.27999973   8.18000031  50.13000107
C     9.22999954   8.07999992  51.09000397
C     7.92999983   7.76000023  50.76000214
C     7.59999990   7.49000025  49.40000153
C     8.59000015   7.44999981  48.44999695
C     9.94000053   7.73000002  48.81000137
C    14.04000092   8.47999954  49.71000290
C    14.78000069   8.05999947  48.57999802
C    16.17000008   7.96999979  48.57999802
C     6.19000006   7.07999992  49.05000305
H     5.74917650   7.67013454  48.24656296
H    10.80999947   7.36000013  46.83000183
H    11.73999977   8.85000038  51.52999878
H     9.47000027   8.36999989  52.11000061
H     7.17000008   7.90999985  51.52000046
H     8.34999943   7.13999987  47.43000031
H    16.73999977   7.55999994  47.76000214
H     5.61999989   7.26000023  49.97000122
H     6.11999989   5.98999977  48.93000031
