96

S    16.86000061   8.53999996  58.11000061
C    19.54000092   8.78000069  57.41000366
C    18.26000023   8.40999985  57.04000092
C    17.95999908   7.96000004  55.72000122
C    18.97999954   7.77999973  54.80999756
C    20.29999924   8.13000011  55.19000244
C    21.30000114   8.06999969  54.16999817
C    22.59000015   8.36999989  54.52999878
C    22.93000031   8.90999985  55.79999924
C    21.94999886   9.06000042  56.75000000
C    20.59999847   8.69999981  56.47999573
C    16.51000023   7.88000011  55.54999924
C    15.78999996   8.15999985  56.73999786
C    14.40999985   8.21000004  56.77999878
C    24.37999916   9.22000027  56.11000061
H    24.83572388   8.57913780  56.86479187
H    19.63000107   9.43000031  58.27999878
H    18.82999992   7.59000015  53.75000000
H    20.97999954   7.85000038  53.15999985
H    23.45999908   8.18000031  53.89999771
H    22.25000000   9.42000008  57.72999573
H    13.89000034   8.46000004  57.70000076
H    24.99000168   9.23999977  55.20000076
H    24.34999847  10.22999954  56.52000046
S    13.30999947   7.02000046  53.15999985
C    10.67999935   6.65999985  53.92000198
C    11.92000008   7.16000032  54.25000000
C    12.20999908   7.73000002  55.52999878
C    11.17000008   8.01000023  56.39999771
C     9.84000015   7.68000031  56.03000259
C     8.71999931   7.94000053  56.86000061
C     7.44000006   7.59000015  56.49000168
C     7.17000008   6.98999977  55.22999573
C     8.26000023   6.77999973  54.40999985
C     9.61000061   7.02000046  54.77000427
C    13.66000080   7.88999987  55.63999939
C    14.39000034   7.53999996  54.47999954
C    15.77999973   7.50999975  54.41999817
C     5.78000021   6.57999992  54.79999924
H     5.23061562   7.41477919  54.36477661
H    10.52999973   6.11000013  52.98999786
H    11.23000050   8.34999943  57.43000031
H     8.76999950   8.53999996  57.77000046
H     6.58999968   7.68000031  57.15000153
H     8.02999973   6.25999975  53.47999954
H    16.18000031   7.34000015  53.41999817
H     5.21000004   6.05999994  55.58000183
H     5.82000017   5.95000029  53.89999771
S    17.22999954   9.22000027  52.19999695
C    19.89999962   9.44000053  51.43000031
C    18.61999893   9.02999973  51.11000061
C    18.34000015   8.30999947  49.91000366
C    19.36000061   8.10000038  49.00000000
C    20.69000053   8.48999977  49.31999969
C    21.77000046   8.22000027  48.43999863
C    23.02000046   8.71000004  48.72000122
C    23.31000137   9.40999985  49.93000031
C    22.30999947   9.55999947  50.86000061
C    20.97999954   9.15000057  50.56000137
C    16.88999939   8.28999996  49.72999954
C    16.17000008   8.64999962  50.90000153
C    14.78999996   8.82999992  50.96000290
C    24.68000031   9.98999977  50.20999908
H    25.19378662   9.26213646  50.83796310
H    20.10000038  10.03000069  52.31999969
H    19.22000122   7.62000036  48.04000092
H    21.57999992   7.82999992  47.43999863
H    23.80000114   8.57999992  47.97999954
H    22.53999901  10.03000069  51.81000137
H    14.32000065   9.23999977  51.84999847
H    25.15999985  10.21000004  49.25000000
H    24.59000015  10.90000057  50.80999756
S    13.71000099   7.49000025  47.35000229
C    10.98000050   7.39000034  48.04999924
C    12.28000069   7.73999977  48.36000061
C    12.61000061   8.27000046  49.65000153
C    11.59000015   8.47999954  50.56000137
C    10.24000072   8.23999977  50.21999741
C     9.18000031   8.46000004  51.13999939
C     7.88000011   8.10999966  50.86999893
C     7.55000019   7.48000050  49.64000320
C     8.56000042   7.23999977  48.74000168
C     9.92000008   7.59999990  48.96999741
C    14.04999924   8.36000061  49.86999893
C    14.75000000   7.96999979  48.70999908
C    16.13999939   7.97999954  48.59000397
C     6.11999989   7.09999990  49.34999847
H     5.74339819   7.67556143  48.50442123
H    10.55999947   7.14999962  47.08000183
H    11.84000015   8.78999996  51.56999969
H     9.44000053   8.85999966  52.11999893
H     7.03000021   8.38000011  51.49000168
H     8.23999977   6.81999969  47.78999710
H    16.62999916   7.57000017  47.71999741
H     5.44000053   7.16000032  50.20999908
H     6.25999975   6.05999994  49.02999878
