96

S    16.95000076   9.07999992  57.87000275
C    19.60000038   9.03999996  57.09000015
C    18.30999947   8.65999985  56.81999969
C    18.00000000   7.92999983  55.61999893
C    18.98999977   7.69999981  54.68999863
C    20.34000015   8.03999996  54.95999908
C    21.38999939   7.86000013  54.02000046
C    22.70000076   8.09000015  54.36000061
C    22.98999977   8.85999966  55.52000046
C    21.94999886   9.30999947  56.30000305
C    20.63999939   8.78999996  56.14999771
C    16.54999924   7.76999998  55.54999924
C    15.88000107   8.34000015  56.65999985
C    14.51000023   8.48999977  56.79000092
C    24.41999817   9.23999977  55.81999969
H    24.90404129   8.65630245  56.60300827
H    19.81999969   9.51000023  58.04999924
H    18.78999901   7.23999977  53.72000122
H    21.12999916   7.40000010  53.06999969
H    23.50000000   7.81000042  53.68000031
H    22.20999908   9.94000053  57.15000153
H    14.17000008   8.80999947  57.77000046
H    24.90999985   9.13000011  54.84000397
H    24.27000046  10.31000042  56.04000092
S    13.19000053   7.22000027  53.29999924
C    10.53999996   7.05999947  54.09999847
C    11.79999924   7.57000017  54.33000183
C    12.23000050   8.15999985  55.56999969
C    11.26000023   8.26000023  56.55000305
C     9.89999962   7.92999983  56.31999969
C     8.82999992   8.19000053  57.21000290
C     7.51999950   7.81000042  57.02999878
C     7.21000004   7.26000023  55.76000214
C     8.17000008   7.05999947  54.79999924
C     9.55000019   7.26000023  55.08999634
C    13.68000031   8.17000008  55.70999908
C    14.34999943   7.73000002  54.54000092
C    15.70000076   7.42999983  54.47999954
C     5.79999971   6.84000015  55.38999939
H     5.52935028   7.26021910  54.42136002
H    10.26999950   6.56000042  53.16999817
H    11.52999973   8.52999973  57.56999969
H     9.07999992   8.57999992  58.20000076
H     6.81999969   8.13000011  57.80000305
H     7.92000008   6.67999983  53.81000137
H    16.28000069   7.07999992  53.63999939
H     5.13000011   7.11000013  56.20999908
H     5.82999992   5.73999977  55.45000076
S    13.61999989   5.31000042  50.41999817
C    10.97000027   4.71000004  51.03000259
C    12.30000019   4.53999996  51.31999969
C    12.72999954   3.86000013  52.50999832
C    11.79999924   3.30999994  53.36999893
C    10.42000008   3.52999973  53.11000061
C     9.46000004   3.00999999  54.02000046
C     8.11999989   3.19000006  53.76999664
C     7.71000004   3.98999977  52.67000198
C     8.60999966   4.53000021  51.77999878
C    10.01000023   4.38000011  52.02000046
C    14.18000031   3.79999995  52.56000137
C    14.78999996   4.57999992  51.53999710
C    16.13000107   4.94999981  51.59999847
C     6.26999950   4.01999998  52.22000122
H     6.04862928   3.18450522  51.55588913
H    10.47999954   5.28999996  50.25000000
H    12.13000107   2.70000005  54.20000076
H     9.80000019   2.24000001  54.71000290
H     7.49000025   2.43000007  54.20999908
H     8.22000027   4.92999983  50.84999847
H    16.69999886   5.51000023  50.87999725
H     5.59000015   4.05000019  53.08000183
H     5.98999977   4.97000027  51.73999786
S    17.39999962   3.24000001  54.94999695
C    20.10000038   3.88999987  54.38999939
C    18.76000023   3.98000002  54.08000183
C    18.30000114   4.61999989  52.88999939
C    19.22000122   5.19999981  52.02999878
C    20.61000061   4.96000004  52.18999863
C    21.60000038   5.31000042  51.23000336
C    22.93000031   5.03999996  51.40999603
C    23.36000061   4.42000008  52.61000061
C    22.40999985   4.00999975  53.50999832
C    21.02000046   4.32999992  53.40999985
C    16.86000061   4.51000023  52.70999908
C    16.22999954   3.74000025  53.70999908
C    14.93000031   3.25000000  53.61000061
C    24.84999847   4.23000002  52.83000183
H    25.27035141   4.73584938  53.69920731
H    20.31999969   3.35000014  55.31999969
H    18.97999954   5.55999994  51.04000092
H    21.28000069   5.92999983  50.40000153
H    23.71999931   5.40000010  50.75000000
H    22.60000038   3.40999985  54.38999939
H    14.48999977   2.56000018  54.33000183
H    25.34000015   4.59999990  51.91999817
H    25.06000137   3.15000010  52.80000305
