96

S    16.98999977   8.86999989  58.20000076
C    19.62000084   9.06999969  57.43000031
C    18.38000107   8.56000042  57.12999725
C    17.98999977   7.97999954  55.87999725
C    18.98999977   7.81000042  54.93999863
C    20.29999924   8.25000000  55.20000076
C    21.40999985   7.88999987  54.38000107
C    22.70999908   8.21000004  54.68000031
C    23.00000000   8.82999992  55.91999817
C    21.98999786   9.15999985  56.79999924
C    20.63999939   8.86999989  56.45999908
C    16.54000092   7.90000010  55.73999786
C    15.88999939   8.46000004  56.86000061
C    14.51000023   8.53999996  56.95000076
C    24.40000153   9.17000008  56.37000275
H    24.88423729   8.41515636  56.98954010
H    19.78000069   9.39000034  58.44999695
H    18.73999977   7.30000019  54.01000214
H    21.14999962   7.44999981  53.41999817
H    23.45999908   7.97999954  53.92000198
H    22.21999931   9.56999969  57.77000046
H    14.06999969   8.80999947  57.90999985
H    25.07999802   9.22999954  55.51000214
H    24.44000053  10.10000038  56.95999908
S    13.35000038   7.32999992  53.30999756
C    10.70000076   7.07000017  54.13000107
C    11.97000027   7.53999996  54.40000153
C    12.32999992   8.09000015  55.66999817
C    11.31999969   8.23000050  56.59999847
C     9.96999931   7.88999987  56.32999802
C     8.97999954   8.19000053  57.30999756
C     7.69999981   7.75000000  57.04999924
C     7.34000015   7.11999989  55.83000183
C     8.30999947   6.88000011  54.88999939
C     9.67000008   7.23999977  55.08999634
C    13.78000069   8.23000050  55.79999924
C    14.44000053   7.82999992  54.61000061
C    15.80999947   7.55999994  54.59000015
C     5.88000011   6.80000019  55.56000137
H     5.43122482   7.46960068  54.82628632
H    10.50000000   6.46000004  53.26000214
H    11.51000023   8.51000023  57.63000107
H     9.19999981   8.84000015  58.15000153
H     6.91999960   7.92999983  57.78999710
H     7.97999954   6.39999962  53.96999741
H    16.29999924   7.05999947  53.75999832
H     5.31000042   6.91999960  56.49000168
H     5.93999958   5.73000002  55.34000015
S    13.60999966   5.19000006  50.38000107
C    10.98000050   4.53999996  51.04999924
C    12.32999992   4.38000011  51.31000137
C    12.81000042   3.72000003  52.48000336
C    11.90000057   3.30000019  53.43000031
C    10.52000046   3.45999980  53.18000031
C     9.61000061   3.00999999  54.18000031
C     8.27999973   3.09999990  53.88000107
C     7.76999998   3.75000000  52.71999741
C     8.61999989   4.26000023  51.77999878
C    10.01999950   4.07000017  51.97000122
C    14.22999954   4.00999975  52.64999771
C    14.78999996   4.82999992  51.65000153
C    16.13000107   5.18000031  51.53999710
C     6.30000019   4.05000019  52.60000229
H     5.83772802   3.56639242  51.73946381
H    10.72999954   5.19000006  50.21999741
H    12.25000000   2.79000020  54.33000183
H    10.01999950   2.57999992  55.10000229
H     7.55000019   2.82000017  54.64000320
H     8.30000019   4.92000008  50.97000122
H    16.53000069   5.56999969  50.61000061
H     5.71000004   3.88999987  53.50999832
H     6.21000004   5.13000011  52.38999939
S    17.50000000   3.76999998  55.01999664
C    20.13999939   4.09999990  54.31999969
C    18.82999992   4.30000019  53.95999908
C    18.38000107   4.94000006  52.77000046
C    19.32999992   5.42999983  51.88999939
C    20.69000053   5.29999971  52.25000000
C    21.75000000   5.88000011  51.50000000
C    23.09000015   5.78000021  51.76000214
C    23.47999954   5.05999994  52.91999817
C    22.52000046   4.51999998  53.74000168
C    21.12999916   4.63999987  53.44999695
C    16.94000053   4.77999973  52.62000275
C    16.32999992   4.17000008  53.75000000
C    15.01000023   3.75000000  53.79000092
C    24.94999886   4.73000002  53.09999847
H    25.27688217   5.11373138  54.06643295
H    20.51000214   3.52999973  55.17000198
H    19.12999916   6.03999996  51.00999832
H    21.52000046   6.42000008  50.58000183
H    23.85999870   6.17999983  51.10000229
H    22.85000038   3.81000018  54.48999786
H    14.73999977   3.17999983  54.66999817
H    25.48000145   5.13000011  52.22999954
H    25.09000015   3.65000010  53.08000183
