96

S    16.95000076   9.07999992  57.87000275
C    19.60000038   9.03999996  57.09000015
C    18.30999947   8.65999985  56.81999969
C    18.00000000   7.92999983  55.61999893
C    18.98999977   7.69999981  54.68999863
C    20.34000015   8.03999996  54.95999908
C    21.38999939   7.86000013  54.02000046
C    22.70000076   8.09000015  54.36000061
C    22.98999977   8.85999966  55.52000046
C    21.94999886   9.30999947  56.30000305
C    20.63999939   8.78999996  56.14999771
C    16.54999924   7.76999998  55.54999924
C    15.88000107   8.34000015  56.65999985
C    14.51000023   8.48999977  56.79000092
C    24.41999817   9.23999977  55.81999969
H    24.90404129   8.65630245  56.60300827
H    19.81999969   9.51000023  58.04999924
H    18.78999901   7.23999977  53.72000122
H    21.12999916   7.40000010  53.06999969
H    23.50000000   7.81000042  53.68000031
H    22.20999908   9.94000053  57.15000153
H    14.17000008   8.80999947  57.77000046
H    24.90999985   9.13000011  54.84000397
H    24.27000046  10.31000042  56.04000092
S    13.19000053   7.22000027  53.29999924
C    10.53999996   7.05999947  54.09999847
C    11.79999924   7.57000017  54.33000183
C    12.23000050   8.15999985  55.56999969
C    11.26000023   8.26000023  56.55000305
C     9.89999962   7.92999983  56.31999969
C     8.82999992   8.19000053  57.21000290
C     7.51999950   7.81000042  57.02999878
C     7.21000004   7.26000023  55.76000214
C     8.17000008   7.05999947  54.79999924
C     9.55000019   7.26000023  55.08999634
C    13.68000031   8.17000008  55.70999908
C    14.34999943   7.73000002  54.54000092
C    15.70000076   7.42999983  54.47999954
C     5.79999971   6.84000015  55.38999939
H     5.52935028   7.26021910  54.42136002
H    10.26999950   6.56000042  53.16999817
H    11.52999973   8.52999973  57.56999969
H     9.07999992   8.57999992  58.20000076
H     6.81999969   8.13000011  57.80000305
H     7.92000008   6.67999983  53.81000137
H    16.28000069   7.07999992  53.63999939
H     5.13000011   7.11000013  56.20999908
H     5.82999992   5.73999977  55.45000076
S    17.36999893   9.31999969  52.11999893
C    20.13999939   9.34000015  51.50000000
C    18.84000015   9.04999924  51.16000366
C    18.48999977   8.59000015  49.85000229
C    19.47999954   8.34999943  48.92000198
C    20.82999992   8.69000053  49.20000076
C    21.88999939   8.67000008  48.25000000
C    23.15000153   9.15999985  48.46000290
C    23.54999924   9.44000053  49.79999924
C    22.52000046   9.48999977  50.70999908
C    21.14000130   9.19000053  50.51000214
C    17.06999969   8.47999954  49.56999969
C    16.36000061   8.93999958  50.70999908
C    14.98000050   9.01000023  50.72000122
C    24.96999931   9.81000042  50.18000031
H    25.42466736   9.07826996  50.84779358
H    20.38999939   9.77999973  52.45999908
H    19.29000092   8.05999947  47.88999939
H    21.59000015   8.36000061  47.25000000
H    23.84000015   9.35999966  47.63999939
H    22.65999985   9.92999935  51.69000244
H    14.42999935   9.21000004  51.63999939
H    25.62999916   9.94999981  49.31999969
H    24.84000015  10.82999992  50.54999924
S    13.86999989   7.67000008  47.16999817
C    11.21999931   7.42000008  47.94000244
C    12.48000050   7.86000013  48.25000000
C    12.79999924   8.47000027  49.51000214
C    11.76000023   8.71000004  50.38000107
C    10.47000027   8.15999985  50.13999939
C     9.48000050   8.23999977  51.16000366
C     8.19000053   7.92000008  50.83000183
C     7.83999968   7.32999992  49.58000183
C     8.78999996   7.27999973  48.59000397
C    10.14999962   7.57000017  48.87000275
C    14.25000000   8.61999989  49.59000015
C    14.98000050   8.14000034  48.47000122
C    16.36000061   7.97999954  48.47000122
C     6.38999987   7.00000000  49.29999924
H     6.16213799   7.41299963  48.31734467
H    10.93000031   7.09000015  46.95000076
H    11.87999916   9.09000015  51.38999939
H     9.59999943   8.80999947  52.08000183
H     7.44000006   8.13000011  51.59000015
H     8.67999935   7.04999971  47.52999878
H    16.90999985   7.57000017  47.62000275
H     5.72000027   7.30999994  50.11000061
H     6.24000025   5.92999983  49.13999939
