96

S    16.61000061   8.94999981  58.26000214
C    19.27999878   9.02000046  57.58999634
C    18.02999878   8.53999996  57.28000259
C    17.68000031   8.03999996  55.98999786
C    18.64999962   7.97999954  55.00000000
C    19.97999954   8.36000061  55.30000305
C    21.04000092   8.32999992  54.34999847
C    22.34000015   8.75000000  54.58000183
C    22.60000038   9.30000019  55.86000061
C    21.65999985   9.21000004  56.86000061
C    20.30999947   8.84000015  56.62000275
C    16.22999954   8.05999947  55.81999969
C    15.50000000   8.53999996  56.93999863
C    14.11000061   8.60000038  56.93999863
C    24.04999924   9.61000061  56.16000366
H    24.39962387   8.93929386  56.94487000
H    19.56999969   9.30999947  58.59000397
H    18.54999924   7.50000000  54.03999710
H    20.88000107   7.82000017  53.40999985
H    23.09000015   8.55000019  53.81999969
H    21.96000099   9.53999996  57.84999847
H    13.63000011   8.76000023  57.90000153
H    24.63000107   9.39999962  55.25000000
H    24.11999893  10.70000076  56.26999664
S    12.98999977   7.36000013  53.34000015
C    10.26999950   7.31999969  54.09999847
C    11.57999992   7.65999985  54.38000107
C    11.96000004   8.14999962  55.66999817
C    11.00999928   8.23000050  56.66999817
C     9.68000031   7.82000017  56.45999908
C     8.69999981   7.82000017  57.49000168
C     7.44999981   7.30999994  57.25000000
C     7.03999996   6.98000002  55.93000031
C     8.00000000   6.84999990  54.94999695
C     9.32999992   7.31999969  55.15999603
C    13.40000057   8.34000015  55.77000046
C    14.09999943   7.82999992  54.64000320
C    15.47000027   7.63999987  54.72000122
C     5.65999985   6.43000031  55.63999939
H     5.21445656   6.96040869  54.79841995
H     9.94999981   6.98999977  53.11999893
H    11.38000011   8.63000011  57.61000061
H     8.93000031   8.30999947  58.43000031
H     6.80999994   7.09000015  58.09999847
H     7.73999977   6.44999981  53.97999573
H    15.98000050   7.14999962  53.88999939
H     4.97000027   6.39999962  56.47999573
H     5.88000011   5.38000011  55.40999985
S    17.38000107   9.25000000  52.18000031
C    20.07999802   9.46000004  51.45999908
C    18.81000137   9.02000046  51.16000366
C    18.52000046   8.43999958  49.87999725
C    19.47999954   8.34000015  48.88999939
C    20.79000092   8.69000053  49.27999878
C    21.87000084   8.59000015  48.34999847
C    23.09999847   9.11000061  48.66000366
C    23.44000053   9.55000019  49.97000122
C    22.49000168   9.50000000  50.97000122
C    21.14999962   9.17000008  50.58000183
C    17.07999992   8.42000008  49.68000031
C    16.34000015   8.76000023  50.83000183
C    14.94999981   8.89000034  50.86999893
C    24.89000130   9.89999962  50.20000076
H    25.14691544   9.64308453  51.22766113
H    20.38000107   9.94000053  52.38999939
H    19.22000122   8.14000034  47.84999847
H    21.53000069   8.27999973  47.36000061
H    23.81000137   9.22999954  47.84999847
H    22.62000084   9.64999962  52.02999878
H    14.42999935   9.23999977  51.75000000
H    25.62999916   9.40999985  49.54999924
H    25.10000038  10.97000027  50.07999802
S    13.88000011   7.72000027  47.23999786
C    11.18000031   7.82000017  47.88000107
C    12.46999931   8.15999985  48.20999908
C    12.79999924   8.76000023  49.47000122
C    11.76000023   9.06000042  50.33000183
C    10.46000004   8.53999996  50.17000198
C     9.42000008   8.56999969  51.14999771
C     8.19999981   8.01000023  50.86999893
C     7.97999954   7.26000023  49.68000031
C     8.90999985   7.37999964  48.68000031
C    10.18000031   7.96999979  48.88000107
C    14.23999977   8.69000053  49.68000031
C    14.96999931   8.18000031  48.56999969
C    16.35000038   8.10000038  48.52000427
C     6.61999989   6.76999998  49.25000000
H     5.95388842   7.40776634  48.66892242
H    11.02000046   7.11000013  47.06999969
H    11.92999935   9.40999985  51.33999634
H     9.68999958   9.02000046  52.09999847
H     7.48000050   8.19000053  51.66999817
H     8.80999947   6.85999966  47.71999741
H    16.81999969   7.82000017  47.57999802
H     6.25000000   6.43000031  50.22999573
H     6.71999979   5.82000017  48.69999695
