96

S    17.09000015   8.52999973  58.46000290
C    19.75000000   8.85000038  57.62000275
C    18.48999977   8.36000061  57.37999725
C    18.13999939   7.86999989  56.07999802
C    19.12999916   7.69000006  55.13000107
C    20.48999977   7.92000008  55.45000076
C    21.52000046   7.55999994  54.52999878
C    22.84000015   7.81000042  54.81999969
C    23.13999939   8.55000019  56.00000000
C    22.13999939   8.89000034  56.88999939
C    20.79000092   8.46000004  56.73999786
C    16.69000053   7.79999971  55.96000290
C    15.98000050   8.25000000  57.09999847
C    14.60000038   8.32999992  57.11000061
C    24.56999969   8.96000004  56.23000336
H    25.05344391   8.38413334  57.01915359
H    19.89999962   9.42000008  58.54000092
H    18.98999977   7.17000008  54.19000244
H    21.21000099   7.23999977  53.54000092
H    23.61000061   7.59000015  54.09000015
H    22.42000198   9.57999992  57.68000031
H    14.02999973   8.42000008  58.02999878
H    25.06999969   8.73000050  55.27999878
H    24.72999954  10.03999901  56.30000305
S    13.43000031   7.00999975  53.55999756
C    10.72000027   7.03000021  54.29000092
C    12.02999973   7.35000038  54.58000183
C    12.39999962   7.83999968  55.87999725
C    11.36000061   8.06999969  56.76000214
C     9.98999977   7.90000010  56.45999908
C     8.98999977   8.00000000  57.47000122
C     7.69000006   7.60999966  57.23999786
C     7.36999989   7.03000021  55.98999786
C     8.30999947   6.91999960  54.99000168
C     9.68000031   7.21000004  55.24000168
C    13.85000038   7.99000025  55.97000122
C    14.55000019   7.55000019  54.82999802
C    15.93999958   7.40999985  54.85000229
C     6.00000000   6.44000006  55.70000076
H     5.60125065   6.83874989  54.76721191
H    10.57999992   6.58999968  53.30999756
H    11.61000061   8.30999947  57.78999710
H     9.30999947   8.45000076  58.40000153
H     6.96000004   7.64999962  58.04000092
H     7.96999979   6.56000042  54.02000046
H    16.51000023   6.94999981  54.05000305
H     5.36000013   6.63999987  56.56000137
H     6.02999973   5.33999968  55.70000076
S    13.53999996   5.26000023  50.40999985
C    10.86999989   4.90999985  51.04999924
C    12.18000031   4.67000008  51.38999939
C    12.64000034   3.94000006  52.52999878
C    11.67000008   3.56999993  53.43999863
C    10.29000092   3.72000003  53.15000153
C     9.22999954   3.25000000  53.96999741
C     7.92000008   3.48000002  53.61999893
C     7.55000019   4.15000010  52.43000031
C     8.52999973   4.51999998  51.53999710
C     9.89000034   4.40000010  51.95000076
C    14.09999943   3.82999992  52.55000305
C    14.73000050   4.61000013  51.55000305
C    16.01000023   5.13999987  51.70000076
C     6.10000038   4.07999992  52.00000000
H     5.90801191   3.36893249  51.19649124
H    10.60999966   5.59999990  50.25000000
H    12.03999996   2.96000004  54.26000214
H     9.43000031   2.61000013  54.82999802
H     7.11999989   2.92000008  54.09999847
H     8.36000061   4.90999985  50.54000092
H    16.46000099   5.84999990  51.00999832
H     5.47999954   3.84000015  52.87000275
H     5.80999947   5.09000015  51.69000244
S    17.28999901   3.19999981  54.93000031
C    19.98999977   3.95000005  54.45000076
C    18.65999985   3.97000027  54.10999680
C    18.26000023   4.67000008  52.93000031
C    19.20999908   5.28999996  52.12999725
C    20.59999847   5.13000011  52.37999725
C    21.61000061   5.64000034  51.52999878
C    22.95000076   5.46999979  51.81000137
C    23.36000061   4.71000004  52.94000244
C    22.39000130   4.21000004  53.76999664
C    21.00000000   4.46999979  53.60000229
C    16.81999969   4.63000011  52.71999741
C    16.21000099   3.71000004  53.61000061
C    14.86999989   3.33999991  53.61000061
C    24.80999947   4.32999992  53.13999939
H    25.29877853   4.96753693  53.87670898
H    20.38999939   3.48000002  55.34999847
H    19.01000023   5.73000002  51.16000366
H    21.31999969   6.11000013  50.59000015
H    23.78000069   5.78999996  51.18999863
H    22.76000023   3.54999995  54.55999756
H    14.29999924   2.70000005  54.27000046
H    25.28000069   4.32000017  52.15999985
H    24.77999878   3.30999994  53.53000259
