96

S    16.97999954   8.64000034  58.31999969
C    19.64999962   8.85000038  57.55000305
C    18.36000061   8.51000023  57.21000290
C    18.02999878   7.95000029  55.93999863
C    19.01000023   7.81000042  54.98000336
C    20.32999992   8.19000053  55.31999969
C    21.44000053   8.09000015  54.43000031
C    22.72999954   8.51000023  54.64000320
C    23.02000046   8.96000004  55.94999695
C    22.01000023   9.22000027  56.84999847
C    20.69000053   8.73999977  56.59999847
C    16.57999992   7.82000017  55.77999878
C    15.90999985   8.19000053  56.97999954
C    14.52000046   8.32999992  57.01000214
C    24.43000031   9.43000031  56.22000122
H    24.87828827   8.81805134  57.00272369
H    19.85999870   9.10000038  58.59000397
H    18.75000000   7.40000010  54.01000214
H    21.24000168   7.63000011  53.46000290
H    23.57000160   8.42000008  53.95999908
H    22.13999939   9.64999962  57.84000015
H    14.14000034   8.71000004  57.95999908
H    25.06999969   9.42000008  55.33000183
H    24.41999817  10.44999981  56.63000107
S    13.36999989   7.16000032  53.40999985
C    10.69000053   7.17999983  54.10999680
C    11.97999954   7.50999975  54.45999908
C    12.38999939   8.13000011  55.68999863
C    11.38000011   8.47000027  56.58000183
C    10.06000042   8.05000019  56.30000305
C     9.04999924   8.14000034  57.29999924
C     7.76000023   7.71000004  57.12999725
C     7.37999964   7.09999990  55.90000153
C     8.32999992   6.98999977  54.91000366
C     9.68999958   7.35000038  55.10000229
C    13.83999920   8.15999985  55.80999756
C    14.52000046   7.67000008  54.65999985
C    15.90000057   7.50000000  54.61000061
C     5.95000029   6.69000053  55.61999893
H     5.48634291   7.33198643  54.87101364
H    10.46000004   6.75000000  53.13999939
H    11.50000000   8.97999954  57.52999878
H     9.30999947   8.39999962  58.33000183
H     7.09999990   7.82000017  57.97999954
H     7.97999954   6.67999983  53.92000198
H    16.36000061   7.37999964  53.63999939
H     5.38000011   6.67000008  56.56000137
H     5.98999977   5.68000031  55.20000076
S    13.48000050   5.38999987  50.24000168
C    10.80999947   4.79999971  50.93999863
C    12.15999985   4.65999985  51.17000198
C    12.60000038   4.11999989  52.43000031
C    11.68000031   3.65000010  53.34000015
C    10.29000092   3.86000013  53.15999985
C     9.31999969   3.30999994  54.05000305
C     7.96999979   3.45000005  53.83999634
C     7.59999990   4.26999998  52.74000168
C     8.46000004   4.65999985  51.73999786
C     9.85000038   4.44999981  51.91999817
C    14.04000092   4.23999977  52.60000229
C    14.63000107   4.92000008  51.50000000
C    15.97000027   5.31000042  51.56999969
C     6.11999989   4.51999998  52.56000137
H     5.76454210   4.03657770  51.65002823
H    10.55999947   5.19999981  49.95999908
H    11.90000057   2.92000008  54.10999680
H     9.63000011   2.68000007  54.87999725
H     7.14999962   3.12000012  54.47000122
H     8.22000027   5.18000031  50.81999969
H    16.38000107   5.89999962  50.76000214
H     5.50000000   4.23999977  53.41999817
H     6.00000000   5.60999966  52.47000122
S    17.32999992   3.50000000  54.85000229
C    20.02000046   4.13999987  54.27000046
C    18.68000031   4.26000023  53.97999573
C    18.20000076   4.97000027  52.83000183
C    19.07999992   5.68000031  52.04000092
C    20.46999931   5.46999979  52.23999786
C    21.44000053   5.88000011  51.29000092
C    22.78000069   5.69000006  51.53999710
C    23.26999855   5.03000021  52.70000076
C    22.34000015   4.55999994  53.60000229
C    20.95000076   4.79999971  53.43000031
C    16.77999878   4.78999996  52.58999634
C    16.18000031   4.00000000  53.60000229
C    14.80000019   3.79999995  53.68999863
C    24.76000023   4.81999969  52.85999680
H    25.12344170   5.14068365  53.83630371
H    20.48999977   3.44000006  54.95999908
H    18.70000076   6.17999983  51.14999771
H    21.18000031   6.38000011  50.35999680
H    23.59000015   5.93999958  50.86999893
H    22.60999870   3.97000027  54.47000122
H    14.30999947   3.32999992  54.52999878
H    25.29000092   5.19999981  51.97999954
H    25.03000069   3.75999975  52.74000168
