96

S    16.63999939   8.90999985  58.06999969
C    19.36000061   8.76999950  57.31999969
C    18.04000092   8.43999958  57.09000015
C    17.61999893   7.75000000  55.90999985
C    18.63999939   7.42000008  55.04000092
C    20.00000000   7.82000017  55.14999771
C    21.00000000   7.65999985  54.15000153
C    22.30999947   8.01000023  54.40000153
C    22.65999985   8.67000008  55.61000061
C    21.73000145   8.85000038  56.60999680
C    20.38000107   8.47000027  56.38000107
C    16.17000008   7.76999998  55.72000122
C    15.50000000   8.26000023  56.86999893
C    14.13000011   8.47999954  56.81999969
C    24.03000069   9.27999973  55.80999756
H    24.54818726   8.73341942  56.59792709
H    19.51000023   9.22999954  58.29000092
H    18.36000061   6.84999990  54.15999985
H    20.69000053   7.40000010  53.15000153
H    23.00000000   7.79999971  53.60000229
H    21.97999954   9.50000000  57.44999695
H    13.63999939   9.13999939  57.52999878
H    24.61999893   9.25000000  54.87999725
H    23.95000076  10.34999943  56.04999924
S    12.98999977   6.98000002  53.30999756
C    10.24000072   7.32999992  53.88999939
C    11.56999969   7.42999983  54.26000214
C    11.92000008   7.90000010  55.56999969
C    10.90999985   8.34000015  56.38999939
C     9.55999947   8.03999996  56.05999756
C     8.55000019   8.42000008  56.97999954
C     7.26000023   7.99000025  56.83000183
C     6.86999989   7.49000025  55.56000137
C     7.76999998   7.30000019  54.54000092
C     9.15000057   7.60999966  54.75000000
C    13.35999966   8.01000023  55.75000000
C    14.04999924   7.60999966  54.58000183
C    15.42000008   7.36999989  54.61000061
C     5.44000053   7.09999990  55.24000168
H     5.13967848   7.47182655  54.26038361
H    10.00000000   7.00999975  52.88000107
H    11.11999989   8.89999962  57.29999924
H     8.84000015   9.04999924  57.81999969
H     6.52999973   8.30999947  57.57999802
H     7.37999964   6.90000010  53.61000061
H    15.88000107   6.78999996  53.81999969
H     4.76999998   7.55000019  55.98999786
H     5.40999985   6.00000000  55.26000214
S    13.88000011   4.76000023  50.38999939
C    11.21999931   4.33999968  51.11000061
C    12.55000019   4.19999981  51.43000031
C    13.03999996   3.75000000  52.70000076
C    12.10000038   3.30999994  53.60000229
C    10.72999954   3.61999989  53.43000031
C     9.70000076   3.21000004  54.31999969
C     8.34999943   3.25999999  54.02999878
C     7.94000053   3.65999985  52.74000168
C     8.89999962   4.07999992  51.84000015
C    10.29000092   3.96000004  52.09999847
C    14.47999954   3.96000004  52.84000015
C    15.06000042   4.55000019  51.69000244
C    16.43000031   4.76000023  51.56000137
C     6.48000002   3.50000000  52.37999725
H     6.11679840   4.14806604  51.58237839
H    10.93999958   4.78999996  50.14999771
H    12.41000080   2.73999977  54.47999954
H    10.00000000   2.66000009  55.20999908
H     7.63999987   2.96000004  54.79000092
H     8.67999935   4.53000021  50.86999893
H    16.77999878   5.19000006  50.61999893
H     6.38999987   2.46000004  52.02999878
H     5.88999987   3.65999985  53.29000092
S    17.86000061   3.61000013  55.07999802
C    20.52000046   4.19999981  54.36000061
C    19.18000031   4.19000006  54.05000305
C    18.67000008   4.63000011  52.77999878
C    19.55999947   5.07999992  51.81999969
C    20.95000076   5.05000019  52.08000183
C    21.91999817   5.53999996  51.17000198
C    23.26999855   5.59000015  51.44000244
C    23.71999931   5.23999977  52.74000168
C    22.82999992   4.67999983  53.63999939
C    21.42999840   4.65000010  53.36999893
C    17.23999977   4.41000032  52.64999771
C    16.63999939   3.88999987  53.81999969
C    15.27999973   3.63999987  53.95000076
C    25.05000114   5.77000046  53.22000122
H    25.46949387   5.13720322  54.00210953
H    20.84000015   3.95000005  55.37000275
H    19.32999992   5.40000010  50.80999756
H    21.52000046   6.15000010  50.35999680
H    23.85999870   6.17999983  50.73999786
H    23.15999985   4.42000008  54.64000320
H    14.68999958   3.35000014  54.80999756
H    24.86000061   6.80000019  53.54999924
H    25.65999985   5.71000004  52.30999756
