96

S    16.97999954   8.75000000  58.18000031
C    19.63000107   8.80000019  57.43999863
C    18.35000038   8.42000008  57.09999847
C    17.94000053   7.88999987  55.84000015
C    18.89999962   7.72000027  54.86999893
C    20.19000053   8.23999977  55.13999939
C    21.17000198   8.10999966  54.10999680
C    22.50999832   8.26000023  54.38000107
C    22.86999893   8.80999947  55.63999939
C    21.94999886   9.18000031  56.59000015
C    20.62000084   8.71000004  56.43000031
C    16.48999977   7.82000017  55.68000031
C    15.86999989   8.30000019  56.86999893
C    14.50000000   8.51000023  56.84000015
C    24.34000015   9.10000038  55.86999893
H    24.75184250   8.85857582  56.84989548
H    19.78999901   9.25000000  58.41999817
H    18.78000069   7.13999987  53.95999908
H    20.76999855   7.64999962  53.20000076
H    23.26000023   8.01999950  53.62999725
H    22.19000053   9.64999962  57.55000305
H    14.14000034   8.75000000  57.84000015
H    24.89000130   8.46000004  55.17000198
H    24.47999954  10.15999985  55.63999939
S    13.27000046   7.17999983  53.29999924
C    10.67999935   7.05999947  54.12000275
C    11.95000076   7.48000050  54.45000076
C    12.25000000   8.00000000  55.75000000
C    11.28000069   8.11999989  56.72999954
C     9.98000050   7.63000011  56.45999908
C     8.86999989   7.63999987  57.36000061
C     7.57999992   7.27999973  57.06999969
C     7.31999969   6.69000053  55.80999756
C     8.38999939   6.61999989  54.93999863
C     9.71000004   7.09999990  55.14999771
C    13.68999958   8.25000000  55.72999954
C    14.35999966   7.76000023  54.58000183
C    15.72000027   7.51999950  54.54999924
C     5.92999983   6.17999983  55.52000046
H     5.39586926   6.90641832  54.90752792
H    10.47000027   6.61999989  53.15000153
H    11.42000008   8.56000042  57.70999908
H     9.07999992   8.01000023  58.36000061
H     6.90999985   7.53999996  57.88999939
H     8.23000050   6.24000025  53.93000031
H    16.14999962   7.11000013  53.63999939
H     5.31000042   6.14000034  56.43000031
H     6.05999994   5.19000006  55.06000137
S    17.50000000   9.18000031  52.16999817
C    20.10999870   9.39999962  51.24000168
C    18.84000015   8.89999962  51.04000092
C    18.40999985   8.36999989  49.78000259
C    19.32999992   8.22000027  48.75999832
C    20.71000099   8.45000076  49.00000000
C    21.70000076   8.17000008  48.02000046
C    23.02999878   8.34999943  48.31999969
C    23.36999893   9.06000042  49.51000214
C    22.43999863   9.35000038  50.47999954
C    21.05999947   9.10000038  50.24000168
C    16.95999908   8.26000023  49.79000092
C    16.28999901   8.69000053  50.97000122
C    14.89999962   8.78000069  51.04999924
C    24.79999924   9.52000046  49.69999695
H    25.27626228   9.03662968  50.55300903
H    20.31999969   9.98000050  52.14000320
H    18.95000076   7.92000008  47.77999878
H    21.42000008   7.92000008  47.01000214
H    23.78000069   8.05000019  47.60000229
H    22.81999969   9.72999954  51.43000031
H    14.39000034   9.36999989  51.79000092
H    25.35000038   9.40999985  48.75000000
H    24.79000092  10.55999947  50.05000305
S    13.78999901   7.49000025  47.41000366
C    11.10000038   7.44000006  48.13000107
C    12.38000011   7.83999968  48.43999863
C    12.71999931   8.30000019  49.75000000
C    11.69000053   8.60000038  50.63999939
C    10.34999943   8.27000046  50.34000015
C     9.30000019   8.38000011  51.31000137
C     8.06999969   7.81000042  51.07999802
C     7.73000002   7.30000019  49.79999924
C     8.69999981   7.31999969  48.82999802
C    10.06000042   7.67000008  49.06999969
C    14.15999985   8.32999992  49.94999695
C    14.84000015   7.99000025  48.75000000
C    16.21999931   7.90999985  48.64999771
C     6.26999950   7.00000000  49.54999924
H     5.86330414   7.57080030  48.71520233
H    10.77999973   7.03999996  47.18000031
H    12.06999969   8.94999981  51.59000015
H     9.55000019   8.67000008  52.32999802
H     7.39000034   7.71000004  51.91999817
H     8.43999958   6.93000031  47.84000015
H    16.62999916   7.53999996  47.71999741
H     5.72000027   7.14999962  50.48999786
H     6.28999996   5.95000029  49.23999786
