96

S    17.02999878   8.43000031  58.25000000
C    19.67000008   8.86999989  57.56999969
C    18.40999985   8.50000000  57.14000320
C    18.07999992   8.01000023  55.84000015
C    19.11000061   7.90999985  54.93000031
C    20.43000031   8.30000019  55.26000214
C    21.55999947   8.23000050  54.38999939
C    22.84000015   8.52999973  54.80999756
C    23.00000000   9.30999947  55.97999954
C    21.90999985   9.52000046  56.79000092
C    20.65999985   8.86999989  56.56000137
C    16.63999939   7.86999989  55.66999817
C    15.93999958   8.10999966  56.88000107
C    14.55999947   8.27000046  56.93000031
C    24.37999916   9.85999966  56.27999878
H    24.79337883   9.32545948  57.13526917
H    19.81999969   9.28999996  58.55999756
H    18.96000099   7.55000019  53.90999603
H    21.38000107   7.88999987  53.37999725
H    23.71999931   8.32999992  54.20999908
H    22.06000137  10.03999901  57.72999573
H    14.09000015   8.34000015  57.90999985
H    25.06999969   9.82999992  55.43000031
H    24.33000183  10.88999939  56.66999817
S    13.53000069   7.46999979  53.11000061
C    10.90999985   7.00000000  53.89999771
C    12.13999939   7.50999975  54.22000122
C    12.43999958   7.95000029  55.54999924
C    11.38000011   7.97999954  56.44000244
C    10.06000042   7.53999996  56.17000198
C     8.89000034   7.65999985  56.97999954
C     7.68000031   7.16000032  56.58000183
C     7.50999975   6.53999996  55.31999969
C     8.61999989   6.38999987  54.52000046
C     9.88000011   6.96000004  54.86999893
C    13.88000011   8.13000011  55.72000122
C    14.55999947   7.79999971  54.52000046
C    15.93999958   7.67000008  54.47999954
C     6.11999989   6.17999983  54.85000229
H     5.72967625   6.79742050  54.04096603
H    10.78999996   6.52999973  52.93000031
H    11.67000008   8.39999962  57.39999771
H     9.09000015   8.18000031  57.90999985
H     6.77999973   7.36999989  57.15999985
H     8.52000046   6.05000019  53.48999786
H    16.51000023   7.40000010  53.59000397
H     5.53999996   6.19000006  55.77999878
H     6.14000034   5.13000011  54.50000000
S    17.40999985   9.17000008  51.93000031
C    20.09000015   9.51000023  51.20999908
C    18.79999924   9.21000004  50.83000183
C    18.46999931   8.82999992  49.48999786
C    19.50000000   8.60999966  48.59000397
C    20.81999969   9.02999973  48.88000107
C    21.93000031   9.02000046  48.00000000
C    23.25000000   9.22999954  48.33000183
C    23.48999977   9.68999958  49.65000153
C    22.44999886   9.81999969  50.54999924
C    21.12999916   9.40999985  50.24000168
C    17.02999878   8.65999985  49.34000015
C    16.34000015   8.84000015  50.56000137
C    14.94999981   8.90999985  50.56000137
C    24.86999893  10.19000053  50.01999664
H    25.26233292   9.61933422  50.86172867
H    20.28000069   9.78999996  52.23999786
H    19.34000015   8.30999947  47.56000137
H    21.70999908   8.78000069  46.95999908
H    24.04999924   8.93999958  47.64999771
H    22.60000038  10.25000000  51.52999878
H    14.46000004   9.34000015  51.43000031
H    25.56999969  10.07999992  49.19000244
H    24.80999947  11.28000069  50.18000031
S    13.83999920   7.79999971  46.97000122
C    11.06999969   7.68000031  47.56000137
C    12.35999966   7.95000029  47.94000244
C    12.75000000   8.26000023  49.27999878
C    11.72999954   8.38999939  50.20000076
C    10.39000034   8.07999992  49.86999893
C     9.36999989   8.01000023  50.86000061
C     8.05999947   7.83999968  50.47999954
C     7.69000006   7.63999987  49.13000107
C     8.65999985   7.53000021  48.15999985
C    10.01999950   7.78999996  48.50999832
C    14.17000008   8.51000023  49.47000122
C    14.93000031   8.22000027  48.30999756
C    16.31000137   8.31999969  48.18999863
C     6.19999981   7.46000004  48.90999603
H     5.79561853   7.80762625  47.95934677
H    10.84000015   7.36000013  46.53999710
H    12.02999973   8.84000015  51.14999771
H     9.76000023   8.10000038  51.86999893
H     7.34000015   8.06999969  51.25999832
H     8.47000027   7.32999992  47.11000061
H    16.88999939   8.00000000  47.31999969
H     5.58000040   7.88000011  49.71000290
H     6.10000038   6.37000036  48.83999634
