96

S    16.77000046   8.51000023  58.37999725
C    19.47999954   8.50000000  57.60000229
C    18.19000053   8.05000019  57.43000031
C    17.81999969   7.62000036  56.11999893
C    18.75000000   7.36999989  55.12000275
C    20.06999969   7.83999968  55.31999969
C    21.04000092   7.76000023  54.27999878
C    22.29000092   8.30000019  54.41999817
C    22.67999840   8.69999981  55.72000122
C    21.83000183   8.69999981  56.81000137
C    20.45999908   8.43000031  56.56999969
C    16.36999893   7.55999994  55.93999863
C    15.67999935   8.13000011  57.04000092
C    14.28999996   8.19999981  57.09999847
C    24.09000015   9.17000008  55.98999786
H    24.60860634   8.43116570  56.60095596
H    19.79999924   8.80999947  58.59000397
H    18.35000038   6.88000011  54.23999786
H    20.69999886   7.39000034  53.30999756
H    23.00000000   8.10999966  53.61000061
H    22.11000061   9.10000038  57.77999878
H    13.71999931   8.40999985  58.00000000
H    24.56000137   9.21000004  55.00000000
H    24.20999908  10.15999985  56.43000031
S    13.19000053   6.98000002  53.54000092
C    10.48999977   6.86999989  54.06999969
C    11.72999954   7.31999969  54.47999954
C    12.06999969   7.81000042  55.77999878
C    11.11999989   7.78999996  56.77999878
C     9.77999973   7.51999950  56.39999771
C     8.61999989   7.69000006  57.19999695
C     7.34000015   7.44999981  56.77000046
C     7.13000011   6.84000015  55.50000000
C     8.21000004   6.58999968  54.68000031
C     9.50000000   7.07000017  55.06000137
C    13.50999928   7.86000013  55.98999786
C    14.27000046   7.36000013  54.88999939
C    15.65000057   7.17999983  54.80999756
C     5.66999960   6.75000000  55.13000107
H     5.32909346   7.01278210  54.12858963
H    10.19000053   6.42000008  53.13000107
H    11.38000011   7.90000010  57.83000183
H     8.78000069   8.19000053  58.15999985
H     6.46000004   7.73000002  57.34000397
H     8.14000034   6.17999983  53.68000031
H    16.10000038   6.76999998  53.90999603
H     5.18000031   7.46999979  55.79000092
H     5.26000023   5.82000017  55.52999878
S    13.30000019   4.65000010  50.54999924
C    10.65999985   4.39000034  51.47999573
C    12.00000000   4.09999990  51.63000107
C    12.51999950   3.38000011  52.76000214
C    11.63000011   2.96000004  53.73000336
C    10.24000072   3.17000008  53.56999969
C     9.26000023   2.66000009  54.47000122
C     7.92999983   2.79000020  54.15999985
C     7.46000004   3.26999998  52.90999985
C     8.34999943   3.93000007  52.09999847
C     9.73999977   3.84000015  52.39999771
C    13.96999931   3.35000014  52.77000046
C    14.52000046   4.15000010  51.73999786
C    15.85000038   4.55000019  51.63999939
C     6.03999996   3.15000010  52.37999725
H     5.81118393   3.45032096  51.35747528
H    10.27999973   5.05000019  50.70999908
H    12.00000000   2.43000007  54.59999847
H     9.61000061   2.07999992  55.31999969
H     7.23000002   2.34999990  54.86999893
H     8.05000019   4.42999983  51.18000031
H    16.25000000   5.13000011  50.80999756
H     5.84999990   2.07999992  52.54000092
H     5.45000029   3.74000025  53.09000015
S    17.35999870   3.10999990  55.02999878
C    20.05000114   3.84000015  54.29999924
C    18.70000076   3.75999975  54.06000137
C    18.13999939   4.41000032  52.91999817
C    19.02000046   5.15999985  52.15000153
C    20.42000008   5.15999985  52.30999756
C    21.32999802   5.73000002  51.38000107
C    22.67999840   5.78999996  51.63000107
C    23.26000023   5.18000031  52.77999878
C    22.39999962   4.48999977  53.60000229
C    20.98999977   4.51000023  53.46000290
C    16.72000122   4.18000031  52.67000198
C    16.17000008   3.47000003  53.75999832
C    14.85999966   3.00000000  53.80000305
C    24.67000008   5.51000023  53.20000076
H    25.21623230   4.85735703  53.88101959
H    20.46999931   3.28999996  55.13999939
H    18.63999939   5.51999998  51.19999695
H    20.89999962   6.19999981  50.50000000
H    23.28000069   6.40999985  50.97000122
H    22.76000023   3.98000002  54.48999786
H    14.55000019   2.44000006  54.66999817
H    24.75000000   6.51999998  53.60000229
H    25.20999908   5.46999979  52.23999786
