96

S    17.11000061   9.02000046  57.93000031
C    19.81999969   9.22999954  57.22000122
C    18.54999924   8.80000019  56.91999817
C    18.17000008   8.19999981  55.66999817
C    19.19000053   8.00000000  54.75999832
C    20.53999901   8.26000023  55.06999969
C    21.59000015   8.01000023  54.13000107
C    22.90999985   8.27999973  54.40000153
C    23.21000099   8.96000004  55.61000061
C    22.22999954   9.23999977  56.52999878
C    20.85000038   8.93999958  56.30000305
C    16.72999954   8.19999981  55.47000122
C    15.98999977   8.52000046  56.63999939
C    14.60999966   8.59000015  56.76000214
C    24.63000107   9.42000008  55.89000320
H    24.92218590   8.89976692  56.80218887
H    20.06999969   9.80000019  58.11000061
H    18.89999962   7.68000031  53.75000000
H    21.35000038   7.57999992  53.15999985
H    23.59000015   7.96000004  53.61999893
H    22.52000046   9.94000053  57.30999756
H    14.21000004   8.97000027  57.69000244
H    25.28000069   9.06000042  55.07999802
H    24.73999977  10.51000023  55.93000031
S    13.60000038   7.59000015  53.02000046
C    10.93999958   7.25000000  53.64999771
C    12.15999985   7.76000023  54.03999710
C    12.44999981   8.28999996  55.34000015
C    11.38000011   8.36999989  56.20999908
C    10.10000038   7.92999983  55.79000092
C     8.97999954   8.27000046  56.60999680
C     7.71000004   7.96999979  56.18999863
C     7.46000004   7.18999958  55.02999878
C     8.52000046   6.80999994  54.25000000
C     9.84000015   7.27999973  54.54000092
C    13.88000011   8.30000019  55.59000015
C    14.60999966   8.01000023  54.40999985
C    15.98999977   7.88000011  54.33000183
C     6.05000019   6.76000023  54.65999985
H     5.61650753   7.45643139  53.94224930
H    10.71000004   6.85999966  52.65999603
H    11.61999893   8.63000011  57.23999786
H     9.26000023   8.89000034  57.45999908
H     6.85999966   8.22000027  56.81999969
H     8.30999947   6.30000019  53.30999756
H    16.46000099   7.51999950  53.40999985
H     5.40999985   6.65999985  55.54999924
H     6.05999994   5.73999977  54.27000046
S    17.67000008   9.36999989  51.90999985
C    20.35000038   9.48000050  51.19999695
C    19.07999992   9.04999924  50.87999725
C    18.70000076   8.47000027  49.62999725
C    19.75000000   8.25000000  48.75000000
C    21.09999847   8.56000042  49.06000137
C    22.22999954   8.23000050  48.25000000
C    23.46999931   8.71000004  48.56999969
C    23.78000069   9.36999989  49.79000092
C    22.72999954   9.68000031  50.61000061
C    21.40999985   9.25000000  50.27999878
C    17.26000023   8.34999943  49.47999954
C    16.56999969   8.89999962  50.59000015
C    15.19999981   9.09000015  50.65999985
C    25.20999908   9.81000042  50.05000305
H    25.68019485   9.14745045  50.77666855
H    20.40999985   9.96000004  52.16999817
H    19.64999962   7.82999992  47.76000214
H    21.94999886   7.75000000  47.31999969
H    24.27999878   8.40999985  47.90999985
H    22.89999962  10.14000034  51.58000183
H    14.80999947   9.65999985  51.50000000
H    25.78000069   9.65999985  49.13000107
H    25.32999992  10.85000038  50.37000275
S    14.00000000   8.00000000  47.04000092
C    11.39000034   7.69000006  48.02999878
C    12.64000034   8.26000023  48.15000153
C    13.02000046   8.78999996  49.43000031
C    12.03999996   9.10000038  50.34999847
C    10.69000053   8.73000050  50.13999939
C     9.59999943   8.94999981  51.03000259
C     8.34999943   8.42000008  50.84000015
C     8.09000015   7.72000027  49.62999725
C     9.06999969   7.42999983  48.70999908
C    10.36999893   7.92999983  48.99000168
C    14.47000027   8.78000069  49.50000000
C    15.14999962   8.27999973  48.36000061
C    16.52000046   8.01999950  48.34000015
C     6.65999985   7.30000019  49.38999939
H     6.22646904   8.00359917  48.67929459
H    11.06999969   7.17000008  47.12999725
H    12.27000046   9.38000011  51.38000107
H     9.89000034   9.36999989  51.98999786
H     7.63000011   8.52999973  51.65000153
H     8.86999989   6.88000011  47.78999710
H    17.05000114   7.72000027  47.43999863
H     6.03999996   7.30000019  50.30000305
H     6.69000053   6.25999975  49.06000137
