96

S    16.79000092   9.17000008  58.25000000
C    19.52000046   9.43000031  57.60000229
C    18.26000023   8.96000004  57.29000092
C    17.89999962   8.40999985  56.00999832
C    18.93000031   8.22000027  55.11000061
C    20.22999954   8.71999931  55.37000275
C    21.35000038   8.47000027  54.52000046
C    22.60999870   8.97000027  54.77000427
C    22.90999985   9.57999992  56.02000427
C    21.90000153   9.61999989  56.95000076
C    20.53999901   9.35999966  56.62000275
C    16.47999954   8.14999962  55.83000183
C    15.72999954   8.69999981  56.90000153
C    14.34000015   8.78000069  56.95000076
C    24.33000183   9.98000050  56.33999634
H    24.77659607   9.23567390  56.99926376
H    19.75000000   9.92999935  58.54000092
H    18.82999992   7.75000000  54.13999939
H    21.28000069   7.69999981  53.75999832
H    23.38999939   8.61999989  54.09000015
H    22.07999992   9.94999981  57.97000122
H    13.80000019   9.07999992  57.84999847
H    24.86999893  10.14999962  55.40000153
H    24.23000145  11.00000000  56.75000000
S    13.30999947   7.40999985  53.33000183
C    10.59000015   7.18999958  54.03999710
C    11.85999966   7.64999962  54.31999969
C    12.22000027   8.27000046  55.56000137
C    11.21000099   8.43000031  56.49000168
C     9.89000034   8.01999950  56.19999695
C     8.85000038   8.17000008  57.16999817
C     7.55999994   7.72000027  57.04999924
C     7.27999973   7.00000000  55.86000061
C     8.23000050   6.80000019  54.87999725
C     9.53999996   7.36000013  54.97000122
C    13.64999962   8.36999989  55.80999756
C    14.35999966   7.90999985  54.66999817
C    15.73999977   7.69000006  54.73999786
C     5.92000008   6.47000027  55.47999954
H     5.57765865   6.88366270  54.53142929
H    10.21999931   6.80000019  53.09000015
H    11.42000008   8.73000050  57.51999664
H     9.11999989   8.51000023  58.16999817
H     6.76000023   7.90000010  57.77000046
H     7.88000011   6.15000010  54.08000183
H    16.17000008   7.35000038  53.81000137
H     5.29999971   6.77999973  56.32999802
H     6.02999973   5.38000011  55.40999985
S    13.05999947   5.25000000  50.27000046
C    10.39000034   4.85000038  50.97000122
C    11.72000027   4.55000019  51.18000031
C    12.15000057   3.88999987  52.37999725
C    11.26000023   3.47000003  53.34999847
C     9.88000011   3.67000008  53.08000183
C     8.82999992   3.17000008  53.90999603
C     7.50000000   3.37000012  53.63999939
C     7.07000017   4.00000000  52.43999863
C     8.05000019   4.48000002  51.60999680
C     9.44000053   4.30999994  51.86999893
C    13.57999992   4.09000015  52.52999878
C    14.26000023   4.78999996  51.50000000
C    15.59999943   5.13999987  51.52000046
C     5.63000011   4.05999994  51.95999908
H     5.36698914   3.20699120  51.33445740
H     9.92999935   5.60999966  50.34999847
H    11.54000092   3.07999992  54.33000183
H     9.19000053   2.76999998  54.85000229
H     6.70000029   2.91000009  54.20999908
H     7.75000000   4.92999983  50.66999817
H    16.01000023   5.86000013  50.81999969
H     5.09000015   4.05999994  52.91999817
H     5.46000004   5.01999950  51.45000076
S    16.79999924   3.77999997  55.01999664
C    19.52999878   4.48999977  54.50000000
C    18.19000053   4.51000023  54.19000244
C    17.76000023   5.05000019  52.93000031
C    18.63999939   5.59000015  52.00000000
C    20.02000046   5.59999990  52.29999924
C    20.98999977   5.98999977  51.32999802
C    22.34000015   5.86999989  51.53999710
C    22.72999954   5.23000002  52.75000000
C    21.84000015   4.86999989  53.73000336
C    20.43999863   5.05000019  53.56999969
C    16.36000061   4.79999971  52.63999939
C    15.69000053   4.09000015  53.67000198
C    14.37000084   3.67000008  53.61000061
C    24.18000031   4.80999994  52.88000107
H    24.66199112   5.09352350  53.81562805
H    19.81999969   3.96000004  55.40000153
H    18.30999947   5.98000002  51.04000092
H    20.75000000   6.24000025  50.30000305
H    23.12999916   6.05999994  50.80999756
H    22.20999908   4.23999977  54.54000092
H    13.99000072   2.99000001  54.36999893
H    24.79000092   5.14999962  52.02999878
H    24.30999947   3.73000002  52.95000076
