96

S    16.90000153   8.53999996  58.54000092
C    19.59000015   8.94999981  57.81999969
C    18.30000114   8.64000034  57.44999695
C    17.97999954   8.14999962  56.14999771
C    18.95000076   8.05000019  55.17000198
C    20.27000046   8.38999939  55.51000214
C    21.32999802   8.17000008  54.58000183
C    22.60999870   8.56000042  54.88999939
C    22.95000076   8.89000034  56.23000336
C    21.97999954   9.00000000  57.18999863
C    20.61000061   8.76000023  56.86000061
C    16.53000069   8.01999950  56.00999832
C    15.77999973   8.27000046  57.18999863
C    14.40000057   8.39999962  57.22000122
C    24.34000015   9.35999966  56.62000275
H    24.88898468   8.56147575  57.11907959
H    19.82999992   9.27999973  58.82999802
H    18.81000137   7.77999973  54.12000275
H    21.07000160   7.71000004  53.62999725
H    23.36999893   8.71999931  54.13999939
H    22.22999954   9.25000000  58.22000122
H    13.85000038   8.42000008  58.15999985
H    24.84000015   9.70000076  55.70999908
H    24.36000061  10.21999931  57.29999924
S    13.35999966   7.37999964  53.55999756
C    10.62000084   7.17999983  54.15999985
C    11.90000057   7.50999975  54.54999924
C    12.23000050   7.96000004  55.86000061
C    11.23999977   8.00000000  56.83000183
C     9.92000008   7.67000008  56.44000244
C     8.89000034   7.63000011  57.43000031
C     7.63000011   7.17999983  57.11000061
C     7.23000002   6.94000006  55.77000046
C     8.23000050   6.84999990  54.82999802
C     9.56999969   7.23000002  55.12000275
C    13.67000008   8.09000015  56.05999756
C    14.44000053   7.82000017  54.89999771
C    15.81999969   7.85000038  54.80999756
C     5.82999992   6.57000017  55.34999847
H     5.45942354   7.20425653  54.54470825
H    10.40999985   6.80999994  53.15999985
H    11.52999973   8.27000046  57.84000015
H     9.03999996   7.90000010  58.47000122
H     6.90999985   7.11000013  57.91999817
H     8.00000000   6.38999987  53.87000275
H    16.34000015   7.69999981  53.87000275
H     5.10999966   6.54999971  56.18000031
H     5.78999996   5.50000000  55.07999802
S    17.20999908   9.40999985  52.04000092
C    19.92000008   9.23999977  51.44000244
C    18.61999893   9.02000046  51.04000092
C    18.31999969   8.60999966  49.69999695
C    19.34000015   8.36999989  48.79000092
C    20.68000031   8.63000011  49.16999817
C    21.77000046   8.45000076  48.27000046
C    23.06999969   8.61999989  48.66000366
C    23.34000015   9.15000057  49.94999695
C    22.30999947   9.44000053  50.81999969
C    20.97999954   9.03999996  50.52000046
C    16.87999916   8.52000046  49.51000214
C    16.18000031   8.93000031  50.66999817
C    14.78999996   8.85999966  50.76000214
C    24.73999977   9.63999939  50.22999573
H    25.21384048   9.15908813  51.08573914
H    20.06000137   9.64999962  52.43999863
H    19.22999954   7.99000025  47.77999878
H    21.57999992   8.19000053  47.22999954
H    23.92999840   8.47000027  48.00000000
H    22.60999870  10.03000069  51.68000031
H    14.30999947   9.19000053  51.68000031
H    25.22000122   9.63000011  49.23999786
H    24.68000031  10.70000076  50.47999954
S    13.61999989   7.71000004  47.16999817
C    10.95999908   7.53999996  47.91999817
C    12.23999977   7.92000008  48.26000214
C    12.61000061   8.39999962  49.54999924
C    11.61000061   8.60999966  50.47999954
C    10.27999973   8.25000000  50.13999939
C     9.22000027   8.38999939  51.07999802
C     7.90000010   8.22000027  50.73999786
C     7.53000021   7.73000002  49.45999908
C     8.56000042   7.37999964  48.61000061
C     9.90999985   7.77999973  48.82999802
C    14.06000042   8.47999954  49.62999725
C    14.77000046   8.09000015  48.47000122
C    16.15999985   8.03999996  48.41999817
C     6.15000010   7.25000000  49.06000137
H     5.64521742   7.90408516  48.34904099
H    10.57000065   7.17999983  46.97000122
H    11.90000057   8.93000031  51.47999573
H     9.51000023   8.73000050  52.06999969
H     7.23999977   8.19999981  51.59999847
H     8.36999989   6.88000011  47.67000198
H    16.65999985   7.67000008  47.51999664
H     5.56999969   7.03999996  49.95999908
H     6.25999975   6.23000050  48.66000366
