96

S    17.05999947   9.11999989  58.04999924
C    19.76000023   9.13999939  57.43000031
C    18.47999954   8.85999966  57.02000046
C    18.12000084   8.38999939  55.72000122
C    19.19000053   8.31999969  54.85000229
C    20.55999947   8.50000000  55.19000244
C    21.61999893   8.27999973  54.26000214
C    22.88999939   8.64000034  54.64000320
C    23.15999985   9.18000031  55.91999817
C    22.17000008   9.25000000  56.88000107
C    20.84000015   8.89000034  56.53999710
C    16.68000031   8.25000000  55.58000183
C    15.95999908   8.71000004  56.72000122
C    14.57999992   8.89000034  56.69000244
C    24.51999855   9.70000076  56.31999969
H    25.01541138   9.00642395  56.99942398
H    19.96000099   9.50000000  58.43999863
H    18.88000107   7.95000029  53.88000107
H    21.35999870   7.86999989  53.27999878
H    23.67000198   8.47000027  53.89999771
H    22.43000031   9.65999985  57.84999847
H    14.14999962   9.22999954  57.62000275
H    25.10000038   9.88000011  55.40000153
H    24.48999786  10.67999935  56.79999924
S    13.45999908   7.27999973  53.20999908
C    10.75000000   7.32999992  53.87000275
C    12.03999996   7.64999962  54.20000076
C    12.41000080   8.34000015  55.40000153
C    11.40999985   8.59000015  56.31999969
C    10.06000042   8.26000023  56.04999924
C     9.06999969   8.36999989  57.06999969
C     7.76000023   8.10000038  56.73999786
C     7.37999964   7.42999983  55.54999924
C     8.36999989   7.23999977  54.61000061
C     9.72000027   7.65999985  54.79000092
C    13.85000038   8.48999977  55.56000137
C    14.53999996   7.86999989  54.48999786
C    15.93000031   7.85000038  54.45999908
C     5.96000004   7.00000000  55.24000168
H     5.53839207   7.53594208  54.38964081
H    10.48999977   6.84000015  52.93000031
H    11.64000034   8.88000011  57.34000397
H     9.47000027   8.53999996  58.06000137
H     6.98000002   8.22000027  57.48000336
H     8.15999985   6.70000029  53.68999863
H    16.46000099   7.63999987  53.54000092
H     5.26000023   7.14999962  56.06999969
H     5.88000011   5.91000032  55.13999939
S    14.06000042   5.45000029  50.34999847
C    11.38000011   4.86999989  50.83000183
C    12.69999981   4.63999987  51.13999939
C    13.17999935   3.97000027  52.30999756
C    12.20000076   3.44000006  53.13000107
C    10.81999969   3.61000013  52.85999680
C     9.89000034   3.02999997  53.76999664
C     8.56999969   3.38999987  53.64999771
C     8.11999989   4.07000017  52.49000168
C     8.98999977   4.51000023  51.52000046
C    10.39999962   4.34999990  51.70999908
C    14.57999992   4.23000002  52.62000275
C    15.21000004   5.03000021  51.63999939
C    16.55999947   5.36999989  51.63999939
C     6.70000029   4.55999994  52.32999802
H     6.16061926   4.09159040  51.50673676
H    11.03999996   5.56999969  50.06000137
H    12.42000008   2.86000013  54.02000046
H    10.26000023   2.44000006  54.61000061
H     7.78999996   3.35000014  54.40000153
H     8.65999985   5.22000027  50.76000214
H    16.98999977   5.79999971  50.73999786
H     6.17999983   4.44999981  53.27999878
H     6.65000010   5.61999989  52.05999756
S    17.87999916   3.54999995  54.93000031
C    20.53999901   4.25000000  54.33000183
C    19.19999886   4.33999968  54.05000305
C    18.71999931   5.00000000  52.85999680
C    19.67000008   5.49000025  51.97999954
C    21.04000092   5.51999998  52.30999756
C    21.97999954   6.10000038  51.39999771
C    23.31000137   6.14000034  51.73999786
C    23.75000000   5.73000002  53.02999878
C    22.88000107   5.05000019  53.85000229
C    21.51000023   4.90000010  53.52000427
C    17.28000069   4.86999989  52.72999573
C    16.67000008   4.09999990  53.75000000
C    15.31000042   3.79999995  53.74000168
C    25.12000084   6.02999973  53.56999969
H    25.46739769   5.32102489  54.32151031
H    20.92000008   3.93000007  55.30000305
H    19.40000153   5.93999958  51.03000259
H    21.68999863   6.40999985  50.40000153
H    23.98999977   6.57999992  51.00999832
H    23.22000122   4.88000011  54.86999893
H    14.81999969   3.17999983  54.47999954
H    25.22999954   7.09999990  53.82999802
H    25.78000069   5.86999989  52.70999908
