96

S    16.38000107   9.02000046  58.27999878
C    19.10000038   8.82000065  57.71999741
C    17.80999947   8.53999996  57.34000397
C    17.48999977   7.88000011  56.11000061
C    18.53999901   7.55999994  55.27000046
C    19.86999893   7.92999983  55.54000092
C    20.93000031   7.77999973  54.59999847
C    22.23999977   8.09000015  54.88999939
C    22.43999863   8.85000038  56.06999969
C    21.48999977   8.94999981  57.05999756
C    20.13999939   8.60000038  56.79000092
C    16.04999924   7.76999998  55.91999817
C    15.34999943   8.47000027  56.93999863
C    13.96999931   8.56999969  56.93999863
C    23.84000015   9.32999992  56.40999603
H    24.31726837   8.51793098  56.95850372
H    19.23999977   9.32999992  58.67000198
H    18.27000046   7.04999971  54.34999847
H    20.88000107   7.37999964  53.59000397
H    23.08000183   7.90000010  54.22999954
H    21.64999962   9.44000053  58.02000046
H    13.48999977   9.06000042  57.78999710
H    24.44999886   9.61999989  55.54999924
H    23.65999985  10.24000072  56.97999954
S    12.90999985   7.00000000  53.46000290
C    10.27999973   6.80999994  54.22999954
C    11.47999954   7.44999981  54.40999985
C    11.77000046   8.10000038  55.65000153
C    10.72000027   8.38999939  56.50000000
C     9.42000008   7.94000053  56.20999908
C     8.30000019   8.05999947  57.09000015
C     7.03999996   7.55999994  56.86999893
C     6.83000040   6.86999989  55.65000153
C     7.88000011   6.58999968  54.79000092
C     9.15999985   7.17000008  55.01999664
C    13.22000027   8.15999985  55.83000183
C    13.94999981   7.55000019  54.78000259
C    15.29999924   7.22000027  54.87999725
C     5.42000008   6.51000023  55.26000214
H     5.04294109   7.19297409  54.49877167
H    10.26999950   5.86000013  53.68999863
H    10.86999989   8.90999985  57.43999863
H     8.39999962   8.75000000  57.93000031
H     6.21000004   7.83999968  57.50999832
H     7.68000031   6.02999973  53.88999939
H    15.73999977   6.63000011  54.06999969
H     4.77999973   6.50000000  56.14999771
H     5.45000029   5.51999998  54.78000259
S    13.38999939   5.10999966  50.38999939
C    10.70000076   4.48000002  50.90000153
C    12.02000046   4.39000034  51.25999832
C    12.35999966   3.78999996  52.51999664
C    11.39000034   3.25000000  53.34000015
C    10.03000069   3.33999991  52.95999908
C     9.01000023   3.01999998  53.89999771
C     7.69000006   3.14000010  53.53000259
C     7.32999992   3.70000005  52.28000259
C     8.30000019   4.09000015  51.38000107
C     9.68000031   3.86000013  51.66999817
C    13.78999901   3.98000002  52.70000076
C    14.50000000   4.67999983  51.70000076
C    15.85000038   5.01999950  51.70999908
C     5.89999962   3.98999977  51.86000061
H     5.43710613   3.14254856  51.35437775
H    10.43000031   5.03999996  50.00999832
H    11.56000042   2.75000000  54.29000092
H     9.30999947   2.73999977  54.91000366
H     6.90999985   3.05999994  54.27999878
H     8.02999973   4.73000002  50.54999924
H    16.36000061   5.25000000  50.79000092
H     5.26000023   4.23000002  52.71999741
H     5.95000029   4.81999969  51.14999771
S    16.97999954   3.45000005  55.20000076
C    19.71999931   3.96000004  54.71000290
C    18.40999985   4.00999975  54.31000137
C    18.00000000   4.65000010  53.09000015
C    18.96999931   5.22000027  52.29000092
C    20.34000015   5.10999966  52.62000275
C    21.38000107   5.65000010  51.81000137
C    22.70000076   5.38000011  52.06999969
C    23.09000015   4.65000010  53.22000122
C    22.11000061   4.19999981  54.06999969
C    20.72999954   4.42999983  53.82999802
C    16.56999969   4.59000015  52.84000015
C    15.88999939   3.89999986  53.88000107
C    14.52999973   3.60000014  53.82999802
C    24.56000137   4.38000011  53.47000122
H    24.87306404   4.82113504  54.41630554
H    20.03999901   3.49000001  55.63999939
H    18.72999954   5.64000034  51.31000137
H    21.14999962   6.05999994  50.83000183
H    23.40999985   5.44000053  51.25000000
H    22.43999863   3.48000002  54.81999969
H    13.86999989   3.10999990  54.54000092
H    25.17000008   4.81999969  52.65999603
H    24.70999908   3.30000019  53.56999969
