96

S    17.12000084   8.76999950  58.09999847
C    19.78000069   9.09000015  57.43000031
C    18.55999947   8.56000042  57.08000183
C    18.25000000   8.07999992  55.77000046
C    19.26000023   8.05000019  54.82999802
C    20.53999901   8.56999969  55.14999771
C    21.61999893   8.57999992  54.22999954
C    22.81999969   9.19999981  54.51000214
C    23.11000061   9.51000023  55.86999893
C    22.13999939   9.39999962  56.84999847
C    20.84000015   8.96000004  56.50000000
C    16.80999947   8.01000023  55.58000183
C    16.05999947   8.32999992  56.75000000
C    14.68000031   8.23000050  56.79000092
C    24.54000092   9.77000046  56.29000092
H    24.86841393   9.10603237  57.08961868
H    19.88999939   9.59000015  58.39000320
H    19.13999939   7.69000006  53.81000137
H    21.64999962   7.99000025  53.30999756
H    23.59000015   9.01000023  53.76999664
H    22.34000015   9.71000004  57.87000275
H    14.14999962   8.52000046  57.70000076
H    25.17999840   9.68999958  55.40000153
H    24.57999992  10.80999947  56.63000107
S    13.60999966   7.50999975  53.11000061
C    10.85000038   7.23000002  53.75999832
C    12.15999985   7.48000050  54.13000107
C    12.55000019   7.81000042  55.45999908
C    11.54000092   8.06999969  56.37000275
C    10.18000031   7.92000008  55.97999954
C     9.15000057   8.14999962  56.93000031
C     7.81000042   8.01000023  56.65000153
C     7.44999981   7.57999992  55.34000015
C     8.40999985   7.32999992  54.38999939
C     9.80000019   7.50999975  54.65999985
C    14.00000000   7.82000017  55.63999939
C    14.75999928   7.55999994  54.47000122
C    16.13999939   7.69000006  54.40000153
C     6.01999998   7.18999958  55.05000305
H     5.60246420   7.81984186  54.26446915
H    10.65000057   6.98000002  52.71999741
H    11.68000031   8.43000031  57.37999725
H     9.55000019   8.47000027  57.88999939
H     7.00999975   8.14000034  57.36999893
H     8.21000004   6.97000027  53.39000320
H    16.72999954   7.46000004  53.52000427
H     5.42000008   7.36999989  55.94999695
H     6.00000000   6.12999964  54.78000259
S    13.71000099   5.36999989  50.27000046
C    11.03999996   4.80999994  50.97999954
C    12.38000011   4.74000025  51.25999832
C    12.82999992   4.09999990  52.45999908
C    11.97000027   3.40999985  53.29999924
C    10.57000065   3.55999994  53.11000061
C     9.57999992   3.10999990  54.02999878
C     8.25000000   3.31999993  53.75000000
C     7.88999987   4.07000017  52.60000229
C     8.76999950   4.55000019  51.65999985
C    10.13000011   4.23999977  51.91999817
C    14.25000000   4.32000017  52.63999939
C    14.88000011   4.94999981  51.52999878
C    16.22999954   5.27999973  51.45999908
C     6.43000031   4.41000032  52.37999725
H     6.08843994   4.08267164  51.39801407
H    10.67999935   5.32999992  50.10000229
H    12.30999947   2.86999989  54.18000031
H     9.85999966   2.66999984  54.98000336
H     7.50000000   3.19000006  54.52000046
H     8.48999977   5.25000000  50.86999893
H    16.59000015   5.68000031  50.52000046
H     5.75000000   4.07000017  53.18000031
H     6.28000021   5.49000025  52.43000031
S    17.51000023   3.94000006  54.98000336
C    20.15000153   4.44999981  54.45000076
C    18.86000061   4.51000023  53.97999573
C    18.45999908   5.14999962  52.76000214
C    19.42000008   5.69999981  51.93000031
C    20.78000069   5.53999996  52.28000259
C    21.80999947   5.98000002  51.38999939
C    23.12999916   5.79999971  51.72000122
C    23.47999954   5.19000006  52.95000076
C    22.50999832   4.81999969  53.85000229
C    21.11999893   4.97000027  53.54999924
C    17.02000046   4.99000025  52.57999802
C    16.36999893   4.41000032  53.69999695
C    15.01000023   4.13000011  53.80000305
C    24.94999886   5.00000000  53.25000000
H    25.31273651   5.84638691  53.83322525
H    20.53999901   3.88999987  55.30000305
H    19.19999886   6.19000006  50.98999786
H    21.47999954   6.38000011  50.44000244
H    23.92000008   6.17000008  51.06999969
H    22.75000000   4.17000008  54.68000031
H    14.47999954   3.75000000  54.65999985
H    25.45000076   4.92999983  52.28000259
H    25.07999802   4.05000019  53.77999878
