96

S    16.88999939   8.93000031  58.33000183
C    19.56999969   9.09000015  57.65999603
C    18.32999992   8.57999992  57.35000229
C    17.98999977   8.07999992  56.04999924
C    19.01000023   7.92999983  55.12000275
C    20.32999992   8.30999947  55.45000076
C    21.40000153   7.96000004  54.59000015
C    22.69000053   8.25000000  54.98000336
C    22.93000031   9.13999939  56.06999969
C    21.90000153   9.53999996  56.88000107
C    20.59000015   9.01000023  56.68000031
C    16.54999924   8.03999996  55.86999893
C    15.80999947   8.52000046  56.97999954
C    14.42000008   8.57999992  56.97000122
C    24.36000061   9.55999947  56.31000137
H    24.84534836   9.01041412  57.11653519
H    19.76000023   9.59999943  58.60000229
H    18.67000008   7.53999996  54.15999985
H    21.18000031   7.30999994  53.75000000
H    23.54999924   7.78999996  54.50000000
H    22.10000038  10.08999920  57.78999710
H    13.94999981   8.96000004  57.88000107
H    24.90999985   9.56999969  55.35999680
H    24.34000015  10.59999943  56.66999817
S    13.43000031   7.23999977  53.34999847
C    10.71000004   7.16000032  54.00000000
C    12.00000000   7.44000006  54.38999939
C    12.25999928   7.92999983  55.70999908
C    11.19999981   8.14999962  56.58000183
C     9.92000008   7.69000006  56.19999695
C     8.82000065   7.88999987  57.09000015
C     7.53999996   7.60999966  56.65999985
C     7.26000023   7.03000021  55.40000153
C     8.26000023   6.97000027  54.45999908
C     9.59000015   7.26999998  54.86000061
C    13.68999958   8.07999992  55.89000320
C    14.42999935   7.73999977  54.72999954
C    15.81999969   7.77999973  54.71000290
C     5.80999947   6.71000004  55.08999634
H     5.45418549   7.28641987  54.23604202
H    10.43000031   6.75000000  53.04000092
H    11.46000004   8.67000008  57.49000168
H     9.03999996   8.31999969  58.06000137
H     6.80999994   7.82000017  57.43999863
H     8.14999962   6.57999992  53.44999695
H    16.36999893   7.63000011  53.77999878
H     5.29999971   7.04999971  55.98999786
H     5.65000010   5.63000011  55.13999939
S    17.51000023   9.26999950  52.22000122
C    20.23999977   9.21000004  51.59000015
C    18.95000076   8.85000038  51.26999664
C    18.59000015   8.36000061  49.98000336
C    19.57999992   8.17000008  49.02000046
C    20.92000008   8.39999962  49.40000153
C    22.00000000   8.30999947  48.47999954
C    23.31000137   8.63000011  48.76999664
C    23.69999886   9.13000011  50.04000092
C    22.67000008   9.22000027  50.94999695
C    21.30000114   8.93000031  50.68999863
C    17.14999962   8.36999989  49.75000000
C    16.43000031   8.84000015  50.87999725
C    15.05000019   8.97000027  50.86000061
C    25.10000038   9.59999943  50.37000275
H    25.54241943   8.94350815  51.11925888
H    20.58000183   9.72000027  52.49000168
H    19.37999916   7.90999985  47.98999786
H    21.75000000   7.96999979  47.49000168
H    24.04000092   8.71000004  47.95999908
H    22.86999893   9.68999958  51.90999985
H    14.57999992   9.34000015  51.77000046
H    25.72999954   9.55999947  49.47000122
H    25.02000046  10.57999992  50.84999847
S    13.99000072   7.81000042  47.22999954
C    11.28999901   7.62000036  47.90999985
C    12.56999969   7.99000025  48.27000046
C    12.89000034   8.36000061  49.61000061
C    11.89000034   8.34000015  50.56999969
C    10.54999924   8.11999989  50.20000076
C     9.44000053   8.27999973  51.06999969
C     8.13000011   8.26000023  50.65000153
C     7.79999971   7.88999987  49.31999969
C     8.85999966   7.65999985  48.46000290
C    10.22999954   7.75000000  48.83999634
C    14.32999992   8.52999973  49.75000000
C    15.06000042   8.14999962  48.60000229
C    16.45000076   8.05999947  48.57999802
C     6.43000031   7.49000025  48.85000229
H     5.96083593   8.08711815  48.06805801
H    11.13999939   7.40000010  46.86000061
H    12.15000057   8.73000050  51.56000137
H     9.50000000   8.53999996  52.11999893
H     7.37999964   8.36000061  51.43000031
H     8.69999981   7.42999983  47.41000366
H    16.90999985   7.77999973  47.63999939
H     5.69000006   7.50000000  49.65999985
H     6.57000017   6.47000027  48.47000122
