96

S    17.17000008   9.26999950  58.09999847
C    19.86999893   9.30999947  57.31999969
C    18.55999947   8.97000027  57.04000092
C    18.20000076   8.36000061  55.79000092
C    19.17000008   8.06999969  54.85000229
C    20.50000000   8.43999958  55.13999939
C    21.55999947   8.19000053  54.22000122
C    22.86999893   8.50000000  54.50000000
C    23.19999886   9.21000004  55.68999863
C    22.27000046   9.22000027  56.70000076
C    20.89999962   8.96000004  56.42000198
C    16.75000000   8.38000011  55.63000107
C    16.05999947   8.86999989  56.77000046
C    14.68000031   8.86999989  56.93000031
C    24.61000061   9.71000004  55.96000290
H    25.25067139   8.91983986  56.35152435
H    20.10999870   9.82999992  58.25000000
H    19.04000092   7.39000034  54.01000214
H    21.35999870   7.50000000  53.40999985
H    23.75999832   8.22000027  53.94000244
H    22.40999985   9.61999989  57.70000076
H    14.19000053   9.25000000  57.81999969
H    25.07999802  10.14000034  55.06999969
H    24.56999969  10.52999973  56.69000244
S    13.50000000   7.35000038  53.44999695
C    10.75000000   7.30000019  54.22999954
C    12.06999969   7.63000011  54.45999908
C    12.46999931   8.34000015  55.63000107
C    11.52999973   8.56999969  56.62000275
C    10.19999981   8.10999966  56.45000076
C     9.22999954   8.14999962  57.49000168
C     7.90999985   7.82000017  57.29000092
C     7.49000025   7.37999964  56.00000000
C     8.38000011   7.27999973  54.95999908
C     9.73999977   7.65999985  55.15999603
C    13.90999985   8.40999985  55.84999847
C    14.60000038   7.97999954  54.68999863
C    15.98000050   7.88000011  54.58000183
C     6.01999998   7.17000008  55.72999954
H     5.67015123   7.84827805  54.95176697
H    10.39000034   6.78999996  53.34000015
H    11.80999947   8.89999962  57.61000061
H     9.61000061   8.46000004  58.46000290
H     7.14999962   7.88000011  58.06000137
H     7.99000025   6.93000031  54.01000214
H    16.31000137   7.30999994  53.72000122
H     5.51000023   7.18999958  56.70000076
H     5.86999989   6.14000034  55.38999939
S    13.73000050   5.59000015  50.35999680
C    11.03999996   5.00000000  50.97000122
C    12.36999989   4.94000006  51.31000137
C    12.79000092   4.21000004  52.47000122
C    11.79999924   3.68999982  53.27999878
C    10.40999985   3.78999996  53.02999878
C     9.47000027   3.32999992  54.00000000
C     8.14999962   3.51999998  53.68999863
C     7.77999973   4.15999985  52.47000122
C     8.65999985   4.55000019  51.50000000
C    10.05000019   4.38000011  51.77000046
C    14.22999954   4.30999994  52.63999939
C    14.86999989   5.03000021  51.59999847
C    16.22999954   5.31000042  51.63000107
C     6.34000015   4.48000002  52.16999817
H     5.93537903   3.93340659  51.31816483
H    10.70000076   5.53999996  50.08999634
H    12.06999969   3.21000004  54.22000122
H     9.73999977   2.73999977  54.86999893
H     7.44999981   3.14000010  54.43000031
H     8.34999943   5.15999985  50.65000153
H    16.65999985   5.68000031  50.70999908
H     5.84000015   4.18000031  53.09999847
H     6.17999983   5.55000019  52.00000000
S    17.52000046   3.52999973  54.93000031
C    20.20000076   4.18000031  54.27999878
C    18.85000038   4.30999994  54.05000305
C    18.43000031   5.01999950  52.88000107
C    19.30999947   5.64000034  52.01000214
C    20.69000053   5.36000013  52.18999863
C    21.68000031   5.84999990  51.27999878
C    23.00000000   5.88000011  51.65000153
C    23.46999931   5.10999966  52.75000000
C    22.55000114   4.44999981  53.54000092
C    21.15999985   4.67000008  53.34999847
C    16.98999977   4.84000015  52.70000076
C    16.36000061   4.05000019  53.68999863
C    14.98999977   3.78999996  53.68999863
C    24.94999886   4.85000038  52.88000107
H    25.41907501   5.37593222  53.71154404
H    20.55999947   3.63000011  55.13999939
H    19.03000069   6.23000050  51.13999939
H    21.25000000   6.42000008  50.45999908
H    23.71000099   6.30999994  50.94999695
H    22.78000069   3.78999996  54.36999893
H    14.51000023   3.22000003  54.47000122
H    25.30999947   5.09999990  51.86999893
H    25.17000008   3.77999997  53.01000214
