96

S    16.82999992   9.02999973  58.26000214
C    19.59000015   9.11000061  57.44999695
C    18.25000000   8.90999985  57.19999695
C    17.80999947   8.34999943  55.96000290
C    18.78000069   8.13000011  55.00000000
C    20.13999939   8.48999977  55.13000107
C    21.14000130   8.15999985  54.18000031
C    22.47999954   8.31999969  54.45999908
C    22.88000107   8.89999962  55.68999863
C    21.94000053   9.22999954  56.63000107
C    20.55000114   9.00000000  56.40999603
C    16.38000107   8.14000034  55.83000183
C    15.67999935   8.56000042  56.98999786
C    14.29999924   8.71999931  56.98999786
C    24.31999969   9.27999973  55.96000290
H    24.75871086   8.69269180  56.76666260
H    19.93999863   9.38000011  58.43999863
H    18.48999977   7.36000013  54.27999878
H    20.81999969   7.86999989  53.18999863
H    23.25000000   8.10000038  53.72000122
H    22.32999992   9.63000011  57.56000137
H    13.86000061   9.27999973  57.81000137
H    24.92000198   9.19999981  55.05000305
H    24.34000015  10.31999969  56.31000137
S    13.15999985   7.32999992  53.44999695
C    10.43000031   7.42000008  54.09000015
C    11.72999954   7.73000002  54.43000031
C    12.15000057   8.14000034  55.72999954
C    11.14999962   8.43999958  56.63999939
C     9.80000019   8.19000053  56.26999664
C     8.80999947   8.31999969  57.28000259
C     7.51999950   7.90000010  57.09000015
C     7.09999990   7.40000010  55.81999969
C     8.05000019   7.13999987  54.86000061
C     9.39000034   7.57999992  55.04000092
C    13.59000015   8.15999985  55.91999817
C    14.28999996   7.71000004  54.77000427
C    15.67999935   7.63999987  54.72999954
C     5.63000011   7.20000029  55.54000092
H     5.26520777   7.63632107  54.61013412
H    10.31000042   6.91999960  53.13000107
H    11.32999992   8.92000008  57.58999634
H     9.02000046   8.85000038  58.20999908
H     6.90999985   8.19000053  57.94000244
H     7.73000002   6.76999998  53.88999939
H    16.21999931   7.32999992  53.83999634
H     5.00999975   7.50999975  56.39999771
H     5.59999990   6.11000013  55.41999817
S    13.86999989   5.47999954  50.61000061
C    11.23999977   5.00000000  51.26999664
C    12.56999969   4.79999971  51.59999847
C    13.02999973   4.11999989  52.77000046
C    12.11999989   3.42999983  53.54000092
C    10.73999977   3.68000007  53.30999756
C     9.81999969   3.07999992  54.20999908
C     8.47000027   3.23000002  53.95999908
C     8.00000000   4.05000019  52.90000153
C     8.89999962   4.67000008  52.06999969
C    10.29999924   4.42999983  52.16999817
C    14.45000076   4.38000011  52.97000122
C    15.03999901   5.07000017  51.86999893
C    16.38000107   5.40000010  51.76000214
C     6.52999973   4.36999989  52.69000244
H     6.14718628   4.07934523  51.71170044
H    11.03000069   5.51000023  50.34000015
H    12.34000015   2.76999998  54.38000107
H    10.19000053   2.54999995  55.07999802
H     7.79999971   2.84000015  54.72000122
H     8.55000019   5.40999985  51.36000061
H    16.81999969   5.88000011  50.89000320
H     5.98000002   3.82999992  53.47000122
H     6.37000036   5.45000029  52.75000000
S    17.98999977   3.68999982  54.94999695
C    20.65000153   4.34999990  54.26000214
C    19.29999924   4.44000006  54.01000214
C    18.71000099   5.05000019  52.85999680
C    19.57999992   5.59999990  51.93000031
C    20.96999931   5.45000029  52.11000061
C    21.88999939   5.98000002  51.17000198
C    23.21000099   6.12999964  51.53999710
C    23.80000114   5.51000023  52.67000198
C    22.95000076   4.92000008  53.56999969
C    21.54999924   4.86000013  53.29000092
C    17.26000023   4.99000025  52.77000046
C    16.72000122   4.25000000  53.85000229
C    15.34999943   4.02999973  53.97999573
C    25.22999954   5.92999983  52.97000122
H    25.57806969   5.43986320  53.87923813
H    21.09000015   3.84999990  55.11000061
H    19.05999947   6.03999996  51.06999969
H    21.50000000   6.25000000  50.19000244
H    23.78999901   6.80000019  50.90999985
H    23.29000092   4.67999983  54.56999969
H    14.93000031   3.48000002  54.81999969
H    25.15999985   7.00999975  53.13999939
H    25.86999893   5.53999996  52.16999817
