96

S    16.97999954   8.75000000  58.18000031
C    19.63000107   8.80000019  57.43999863
C    18.35000038   8.42000008  57.09999847
C    17.94000053   7.88999987  55.84000015
C    18.89999962   7.72000027  54.86999893
C    20.19000053   8.23999977  55.13999939
C    21.17000198   8.10999966  54.10999680
C    22.50999832   8.26000023  54.38000107
C    22.86999893   8.80999947  55.63999939
C    21.94999886   9.18000031  56.59000015
C    20.62000084   8.71000004  56.43000031
C    16.48999977   7.82000017  55.68000031
C    15.86999989   8.30000019  56.86999893
C    14.50000000   8.51000023  56.84000015
C    24.34000015   9.10000038  55.86999893
H    24.75184250   8.85857582  56.84989548
H    19.78999901   9.25000000  58.41999817
H    18.78000069   7.13999987  53.95999908
H    20.76999855   7.64999962  53.20000076
H    23.26000023   8.01999950  53.62999725
H    22.19000053   9.64999962  57.55000305
H    14.14000034   8.75000000  57.84000015
H    24.89000130   8.46000004  55.17000198
H    24.47999954  10.15999985  55.63999939
S    13.27000046   7.17999983  53.29999924
C    10.67999935   7.05999947  54.12000275
C    11.95000076   7.48000050  54.45000076
C    12.25000000   8.00000000  55.75000000
C    11.28000069   8.11999989  56.72999954
C     9.98000050   7.63000011  56.45999908
C     8.86999989   7.63999987  57.36000061
C     7.57999992   7.27999973  57.06999969
C     7.31999969   6.69000053  55.80999756
C     8.38999939   6.61999989  54.93999863
C     9.71000004   7.09999990  55.14999771
C    13.68999958   8.25000000  55.72999954
C    14.35999966   7.76000023  54.58000183
C    15.72000027   7.51999950  54.54999924
C     5.92999983   6.17999983  55.52000046
H     5.39586926   6.90641832  54.90752792
H    10.47000027   6.61999989  53.15000153
H    11.42000008   8.56000042  57.70999908
H     9.07999992   8.01000023  58.36000061
H     6.90999985   7.53999996  57.88999939
H     8.23000050   6.24000025  53.93000031
H    16.14999962   7.11000013  53.63999939
H     5.31000042   6.14000034  56.43000031
H     6.05999994   5.19000006  55.06000137
S    13.92000008   5.00999975  50.47999954
C    11.28999901   4.51000023  51.19999695
C    12.61999989   4.39000034  51.51000214
C    13.12000084   3.88999987  52.76000214
C    12.18999958   3.37000012  53.62999725
C    10.80000019   3.55999994  53.39000320
C     9.90999985   2.94999981  54.31999969
C     8.56000042   2.86000013  54.03999710
C     8.07999992   3.51000023  52.87000275
C     8.90999985   4.23999977  52.05999756
C    10.31999969   4.13000011  52.15999985
C    14.55999947   4.03999996  52.88999939
C    15.11999989   4.65000010  51.73999786
C    16.46999931   4.90999985  51.56999969
C     6.60000038   3.70000005  52.62000275
H     6.29498768   3.41626740  51.61274719
H    11.05000019   5.13000011  50.33000183
H    12.53999901   2.71000004  54.43000031
H    10.32999992   2.28999996  55.06999969
H     7.99000025   2.23000002  54.71000290
H     8.57999992   4.73000002  51.13999939
H    16.84999847   5.27999973  50.61999893
H     5.96000004   3.17000008  53.34000015
H     6.34000015   4.74000025  52.83000183
S    17.88999939   3.61999989  55.15999603
C    20.50000000   4.01999998  54.41999817
C    19.17000008   4.25000000  54.10999680
C    18.71000099   4.75000000  52.84999847
C    19.63000107   5.35000038  52.01000214
C    21.01000023   5.25000000  52.31999969
C    22.01000023   5.72000027  51.42000198
C    23.36000061   5.60999966  51.66999817
C    23.75999832   4.96000004  52.85999680
C    22.84000015   4.26999998  53.60000229
C    21.42999840   4.46000004  53.44999695
C    17.27000046   4.61000013  52.68000031
C    16.73999977   4.09999990  53.89999771
C    15.39000034   3.79999995  53.99000168
C    25.22999954   4.90000010  53.23999786
H    25.49433899   4.88571119  54.29736328
H    20.86000061   3.53999996  55.31999969
H    19.32999992   5.78999996  51.05999756
H    21.63999939   6.19000006  50.51000214
H    24.09000015   5.98999977  50.97000122
H    23.15999985   3.77999997  54.52000046
H    15.03999901   3.21000004  54.84000397
H    25.75000000   5.65999985  52.63999939
H    25.55000114   3.95000005  52.77999878
