96

S    16.84999847   8.84000015  58.40000153
C    19.54000092   9.02000046  57.77999878
C    18.27999878   8.64000034  57.36999893
C    17.97999954   8.27000046  56.02000427
C    19.02000046   8.26000023  55.10000229
C    20.36999893   8.47999954  55.47000122
C    21.47000122   8.38000011  54.56999969
C    22.67999840   8.93000031  54.89999771
C    22.92000008   9.39999962  56.20999908
C    21.90999985   9.34000015  57.14000320
C    20.58000183   8.93000031  56.81999969
C    16.54000092   8.17000008  55.86000061
C    15.78999996   8.55000019  57.01000214
C    14.40999985   8.43000031  57.02999878
C    24.31999969   9.85000038  56.56000137
H    24.83049202   9.14807129  57.21939087
H    19.78000069   9.40999985  58.76999664
H    18.90999985   8.05000019  54.03999710
H    21.17000198   8.14999962  53.54999924
H    23.45999908   8.96000004  54.13999939
H    22.13000107   9.70000076  58.13999939
H    14.01000023   8.76000023  57.97999954
H    24.80999947  10.01999950  55.59999847
H    24.31999969  10.85999966  57.00000000
S    13.35000038   7.37999964  53.40000153
C    10.57999992   7.26999998  54.05000305
C    11.89000034   7.50999975  54.40000153
C    12.20000076   7.96999979  55.72000122
C    11.23999977   8.11999989  56.70000076
C     9.88000011   7.94000053  56.37000275
C     8.82999992   7.95000029  57.32999802
C     7.53999996   7.63000011  57.00000000
C     7.26000023   7.27999973  55.65000153
C     8.23999977   7.23999977  54.68999863
C     9.59000015   7.57000017  55.00999832
C    13.63999939   8.14999962  55.89000320
C    14.42000008   7.79999971  54.75999832
C    15.80999947   7.73000002  54.75000000
C     5.84000015   6.89000034  55.31000137
H     5.50516319   7.51692820  54.48359680
H    10.31000042   6.81999969  53.09000015
H    11.64000034   8.43999958  57.65999603
H     9.09000015   8.15999985  58.36999893
H     6.70000029   7.63000011  57.69000244
H     8.01000023   6.91999960  53.68000031
H    16.31000137   7.28999996  53.89999771
H     5.19999981   7.04999971  56.18999863
H     5.78999996   5.84000015  54.99000168
S    17.46999931   9.09000015  52.22999954
C    20.13000107   9.42000008  51.52999878
C    18.88000107   8.96000004  51.16000366
C    18.55999947   8.52000046  49.84000397
C    19.61000061   8.27000046  48.97999573
C    20.93000031   8.64999962  49.33000183
C    21.97999954   8.36999989  48.40999985
C    23.29000092   8.64000034  48.70999908
C    23.54000092   9.31999969  49.93000031
C    22.55000114   9.61000061  50.84000015
C    21.18999863   9.26999950  50.59999847
C    17.12000084   8.56999969  49.65999985
C    16.39000130   8.90999985  50.83000183
C    15.00000000   8.93999958  50.84999847
C    24.96999931   9.63000011  50.33000183
H    25.49795723   8.96648693  51.01491928
H    20.20999908   9.98000050  52.45999908
H    19.42000008   7.71000004  48.06999969
H    21.76000214   7.94000053  47.43000031
H    24.09000015   8.43999958  48.01000214
H    22.90999985   9.94999981  51.81000137
H    14.42000008   9.17000008  51.73999786
H    25.59000015   9.77000046  49.43999863
H    24.77000046  10.62999916  50.75000000
S    13.90999985   7.82000017  47.21000290
C    11.21000099   7.88999987  47.91999817
C    12.51000023   8.21000004  48.22999954
C    12.81999969   8.64999962  49.55999756
C    11.80999947   8.89999962  50.47000122
C    10.46000004   8.59000015  50.19000244
C     9.39999962   8.64999962  51.12999725
C     8.10999966   8.31999969  50.77000046
C     7.76999998   8.01000023  49.43000031
C     8.82000065   7.78999996  48.56999969
C    10.18000031   8.10999966  48.86000061
C    14.27000046   8.61999989  49.69999695
C    15.00000000   8.15999985  48.56999969
C    16.39000130   8.22000027  48.50999832
C     6.32000017   7.76999998  49.09000015
H     5.95790911   8.39478397  48.27352142
H    10.92000008   7.28999996  47.05999756
H    12.23999977   9.23999977  51.40999603
H     9.61000061   9.15000057  52.06999969
H     7.30000019   8.63000011  51.43000031
H     8.78000069   7.32999992  47.58999634
H    16.87999916   7.79999971  47.63999939
H     5.79999971   8.00000000  50.02999878
H     6.17999983   6.71000004  48.88000107
