96

S    16.46000099   8.86999989  58.20000076
C    19.15999985   8.92000008  57.47000122
C    17.86999893   8.51000023  57.18999863
C    17.56999969   7.96999979  55.90000153
C    18.54999924   7.73000002  54.95999908
C    19.86999893   8.14000034  55.26000214
C    20.92000008   8.06999969  54.29999924
C    22.20000076   8.45000076  54.64000320
C    22.50000000   9.10000038  55.86000061
C    21.53000069   9.15999985  56.83000183
C    20.20999908   8.71999931  56.52999878
C    16.13000107   7.96000004  55.68000031
C    15.43000031   8.39999962  56.83000183
C    14.04000092   8.39999962  56.90000153
C    23.88000107   9.61000061  56.23000336
H    24.42850494   8.94039726  56.89247894
H    19.27000046   9.43000031  58.41999817
H    18.32999992   7.42000008  53.94000244
H    20.71000099   7.73999977  53.29000092
H    22.98000145   8.38999939  53.88000107
H    21.73999977   9.78999996  57.69000244
H    13.53999996   8.82000065  57.77000046
H    24.36000061   9.89000034  55.27999878
H    23.65999985  10.59999943  56.63999939
S    12.84999943   7.17000008  53.34000015
C    10.14000034   6.98999977  54.13999939
C    11.44000053   7.36000013  54.40000153
C    11.82999992   7.96999979  55.63999939
C    10.82999992   8.14000034  56.56999969
C     9.46000004   7.95000029  56.29000092
C     8.38000011   8.23999977  57.16999817
C     7.07999992   8.00000000  56.79999924
C     6.72999954   7.46999979  55.54000092
C     7.75000000   7.03000021  54.72999954
C     9.11000061   7.26999998  55.06999969
C    13.27999973   8.05999947  55.77000046
C    13.97999954   7.55000019  54.65000153
C    15.36999893   7.53000021  54.58000183
C     5.32000017   7.03000021  55.17000198
H     5.00612688   7.41520834  54.19984818
H     9.81000042   6.70000029  53.15000153
H    11.09000015   8.32999992  57.61000061
H     8.47000027   8.64000034  58.18000031
H     6.25000000   8.18000031  57.48000336
H     7.55000019   6.35999966  53.88999939
H    15.85000038   7.23999977  53.64999771
H     4.61999989   7.31999969  55.96000290
H     5.32000017   5.93999958  55.20000076
S    17.28999901   9.03999996  52.14000320
C    19.92000008   9.48000050  51.45000076
C    18.68000031   9.04999924  51.04000092
C    18.35000038   8.53999996  49.75000000
C    19.40000153   8.47999954  48.85000229
C    20.72999954   8.85000038  49.20999908
C    21.80999947   8.78000069  48.29000092
C    23.06999969   9.17000008  48.68999863
C    23.28000069   9.84000015  49.93000031
C    22.29999924   9.71000004  50.89000320
C    21.00000000   9.22000027  50.56999969
C    16.92000008   8.31999969  49.62999725
C    16.20000076   8.53999996  50.84000015
C    14.81999969   8.65999985  50.93999863
C    24.63999939  10.31999969  50.35999680
H    25.12494087   9.57832527  50.99470139
H    20.03000069   9.96999931  52.42000198
H    19.19999886   8.30000019  47.80000305
H    21.88999939   8.22000027  47.36000061
H    23.92000008   8.98999977  48.04000092
H    22.49000168  10.01999950  51.90999985
H    14.40000057   8.88000011  51.91999817
H    25.22000122  10.47999954  49.43999863
H    24.70999908  11.31999969  50.79999924
S    13.68000031   7.68000031  47.28000259
C    11.00999928   7.36999989  47.94000244
C    12.25999928   7.78999996  48.33000183
C    12.58999920   8.31999969  49.61999893
C    11.51999950   8.39999962  50.47999954
C    10.21999931   7.94000053  50.13999939
C     9.11999989   8.30999947  50.96000290
C     7.81000042   8.02999973  50.65000153
C     7.51999950   7.50999975  49.36999893
C     8.53999996   7.17000008  48.52000427
C     9.90999985   7.44000006  48.82999802
C    14.04000092   8.40999985  49.80999756
C    14.75999928   8.05999947  48.63999939
C    16.13999939   7.99000025  48.50999832
C     6.11000013   7.11000013  48.97999573
H     5.71689987   7.48880529  48.03655624
H    10.93000031   7.17000008  46.86999893
H    11.64000034   8.94999981  51.40999603
H     9.38000011   8.92000008  51.83000183
H     7.03000021   8.30999947  51.36000061
H     8.34000015   6.44999981  47.72999573
H    16.62999916   7.90999985  47.55000305
H     5.40000010   7.40999985  49.75999832
H     6.17000008   6.01000023  48.89999771
