96

S    16.98999977   8.88000011  58.08000183
C    19.70000076   8.84000015  57.50999832
C    18.43000031   8.52000046  57.11000061
C    18.00000000   8.17000008  55.77999878
C    19.01000023   8.14999962  54.84000397
C    20.36999893   8.31999969  55.20999908
C    21.44000053   8.18000031  54.27000046
C    22.77000046   8.38000011  54.56999969
C    23.06999969   8.92000008  55.84999847
C    22.06999969   9.15000057  56.77000046
C    20.72999954   8.71000004  56.53999710
C    16.55999947   8.14000034  55.56999969
C    15.88999939   8.61999989  56.72000122
C    14.51000023   8.76999950  56.73999786
C    24.44999886   9.42000008  56.20999908
H    24.97705460   8.70064259  56.83676529
H    19.93999863   9.26000023  58.47999954
H    18.82999992   7.76999998  53.83999634
H    21.25000000   7.94000053  53.22999954
H    23.54000092   8.38999939  53.81000137
H    22.29999924   9.52000046  57.76000214
H    13.92000008   9.00000000  57.63000107
H    24.97999954   9.48999977  55.26000214
H    24.30999947  10.39000034  56.70999908
S    13.35999966   7.69999981  53.08000183
C    10.69000053   7.64999962  53.80000305
C    11.98999977   7.86999989  54.19000244
C    12.34000015   8.34999943  55.48999786
C    11.32999992   8.51000023  56.43000031
C    10.01000023   8.17000008  56.06999969
C     8.98999977   8.14000034  57.06999969
C     7.68000031   7.86000013  56.77000046
C     7.32999992   7.46000004  55.45000076
C     8.27000046   7.50000000  54.43999863
C     9.63000011   7.78999996  54.72999954
C    13.78999901   8.43999958  55.59000015
C    14.47999954   8.02999973  54.41999817
C    15.85999966   7.85000038  54.38999939
C     5.89999962   7.18999958  55.05000305
H     5.54335690   7.80342579  54.22258759
H    10.55999947   7.30999994  52.77000046
H    11.52999973   8.65999985  57.49000168
H     9.31999969   8.34999943  58.08000183
H     6.90000010   8.05000019  57.50999832
H     7.96999979   7.28999996  53.41999817
H    16.32999992   7.37999964  53.54000092
H     5.21000004   7.42999983  55.86999893
H     5.73999977   6.15999985  54.69999695
S    17.45000076   9.72999954  52.01000214
C    20.17000008   9.65999985  51.35000229
C    18.88000107   9.25000000  51.07999802
C    18.54999924   8.65999985  49.80999756
C    19.57999992   8.42000008  48.92000198
C    20.92000008   8.76000023  49.22999954
C    21.97999954   8.46000004  48.33000183
C    23.29000092   8.55000019  48.74000168
C    23.61999893   9.06000042  50.01999664
C    22.63000107   9.53999996  50.84000015
C    21.25999832   9.35999966  50.48999786
C    17.11000061   8.67000008  49.59999847
C    16.38000107   9.15999985  50.70999908
C    15.01000023   9.38000011  50.68000031
C    25.03999901   9.48999977  50.31000137
H    25.43892860   9.30478287  51.30732346
H    20.36000061  10.05000019  52.35000229
H    19.37000084   7.92999983  47.97000122
H    21.75000000   8.01000023  47.36999893
H    24.04000092   8.34999943  47.97999954
H    22.86000061  10.08999920  51.75000000
H    14.47000027   9.63000011  51.59000015
H    25.72999954   8.97000027  49.62999725
H    25.03000069  10.54999924  50.04000092
S    13.86000061   7.77999973  47.28000259
C    11.18000031   7.75000000  47.93000031
C    12.43000031   8.23999977  48.22000122
C    12.81999969   8.82999992  49.47000122
C    11.84000015   9.03999996  50.41999817
C    10.50000000   8.69999981  50.07999802
C     9.48000050   8.92000008  51.04000092
C     8.17000008   8.63000011  50.73999786
C     7.82999992   8.05000019  49.48999786
C     8.78999996   7.76000023  48.54999924
C    10.14000034   8.15999985  48.80000305
C    14.27000046   8.94999981  49.56999969
C    15.00000000   8.34000015  48.52000427
C    16.39000130   8.31999969  48.46000290
C     6.40999985   7.55000019  49.29999924
H     5.97521973   7.94201517  48.38054657
H    11.11999989   7.18999958  47.00000000
H    12.02000046   9.39000034  51.43000031
H     9.67000008   9.48000050  51.95000076
H     7.36999989   8.85999966  51.44000244
H     8.59000015   7.23999977  47.62000275
H    16.92000008   7.94000053  47.58999634
H     5.84999990   7.92999983  50.15999603
H     6.32999992   6.44999981  49.34000015
