96

S    16.97000122   8.76000023  58.16999817
C    19.67000008   8.80000019  57.48000336
C    18.37000084   8.56999969  57.09000015
C    17.98999977   8.10000038  55.79000092
C    19.04999924   7.83999968  54.93999863
C    20.39999962   8.10000038  55.27000046
C    21.47000122   7.85000038  54.36000061
C    22.72999954   8.31999969  54.62999725
C    23.01000214   8.88000011  55.90000153
C    22.07999992   8.97000027  56.90999985
C    20.73999786   8.63000011  56.56000137
C    16.55999947   8.07999992  55.54000092
C    15.93999958   8.52000046  56.73999786
C    14.55000019   8.56999969  56.79999924
C    24.44000053   9.26000023  56.24000168
H    24.95407486   8.48174953  56.80405426
H    19.85999870   9.22999954  58.46000290
H    18.90999985   7.44999981  53.94000244
H    21.17000198   7.48000050  53.37999725
H    23.47999954   8.34999943  53.83999634
H    22.17000008   9.22000027  57.95999908
H    13.99000072   8.67999935  57.72999573
H    24.96000099   9.55000019  55.31999969
H    24.31999969  10.17000008  56.84000015
S    13.36999989   7.57999992  53.13000107
C    10.65999985   7.40000010  53.89999771
C    11.96000004   7.73999977  54.20000076
C    12.34000015   8.23000050  55.48999786
C    11.33999920   8.27000046  56.45000076
C     9.98000050   7.92999983  56.20999908
C     8.93999958   7.83999968  57.15999985
C     7.67000008   7.40000010  56.86000061
C     7.36000013   6.91999960  55.56000137
C     8.34000015   6.98000002  54.59999847
C     9.63999939   7.48000050  54.87999725
C    13.78000069   8.27000046  55.66999817
C    14.47000027   7.92000008  54.47999954
C    15.85000038   7.83999968  54.36000061
C     5.98000002   6.43000031  55.18000031
H     5.58913660   6.91324902  54.28456879
H    10.42000008   6.90999985  52.95999908
H    11.61999893   8.64999962  57.42000198
H     9.13999939   8.26000023  58.13999939
H     6.84000015   7.31999969  57.56000137
H     8.30999947   6.51000023  53.61999893
H    16.45000076   7.50000000  53.52000427
H     5.36999989   6.81999969  56.00000000
H     5.92999983   5.33999968  55.22999573
S    14.26000023   5.32000017  50.13999939
C    11.54000092   4.77999973  50.86999893
C    12.89999962   4.75000000  51.11000061
C    13.42000008   4.23999977  52.34000397
C    12.53999901   3.68999982  53.26000214
C    11.13999939   3.75000000  53.11999893
C    10.19999981   3.19000006  54.03999710
C     8.85000038   3.17999983  53.76999664
C     8.38999939   3.78999996  52.56999969
C     9.26000023   4.32999992  51.65999985
C    10.67000008   4.30999994  51.88000107
C    14.85999966   4.42000008  52.55000305
C    15.44999981   5.05000019  51.42000198
C    16.77999878   5.42999983  51.31999969
C     6.90000010   3.74000025  52.30999756
H     6.58568192   3.41853857  51.31703949
H    11.14999962   5.32000017  50.00999832
H    12.89000034   3.00000000  54.02000046
H    10.42000008   2.71000004  54.99000168
H     8.26000023   2.73000002  54.55999756
H     8.97000027   4.67000008  50.66999817
H    17.17000008   5.88999987  50.40999985
H     6.38000011   3.17999983  53.09999847
H     6.52999973   4.75000000  52.50000000
S    18.19000053   4.00999975  54.80999756
C    20.85000038   4.30000019  54.12000275
C    19.52999878   4.53999996  53.79000092
C    19.04999924   5.07000017  52.55000305
C    20.00000000   5.40000010  51.59999847
C    21.37000084   5.25000000  51.90999985
C    22.36999893   5.86000013  51.09000397
C    23.68999863   5.86000013  51.47999573
C    24.11000061   5.25000000  52.69000244
C    23.19000053   4.61999989  53.50000000
C    21.80999947   4.67000008  53.15000153
C    17.61000061   5.12000036  52.41000366
C    17.04000092   4.44000006  53.53000259
C    15.71000004   4.07000017  53.60000229
C    25.48999977   5.58000040  53.20000076
H    25.85879135   4.94879961  54.00850296
H    21.11000061   3.78999996  55.05000305
H    19.73999977   5.93999958  50.68999863
H    22.09000015   6.38999987  50.19000244
H    24.37000084   6.48000002  50.90000153
H    23.47999954   4.26999998  54.47999954
H    15.29999924   3.58000016  54.47999954
H    25.48000145   6.61000013  53.57999802
H    26.25000000   5.50000000  52.41000366
