96

S    17.20000076   8.78000069  58.16999817
C    19.92000008   8.90999985  57.43999863
C    18.60999870   8.65999985  57.09999847
C    18.20999908   8.17000008  55.80999756
C    19.22000122   8.05999947  54.87999725
C    20.59999847   8.25000000  55.13999939
C    21.63999939   8.15999985  54.18000031
C    22.95000076   8.48999977  54.43000031
C    23.25000000   8.92000008  55.75000000
C    22.27000046   9.15000057  56.69000244
C    20.92000008   8.76999950  56.45000076
C    16.76000023   8.09000015  55.65000153
C    16.06999969   8.43999958  56.84000015
C    14.68999958   8.45000076  56.90000153
C    24.69000053   9.06999969  56.18000031
H    25.07504272   8.31417465  56.86452484
H    20.26000023   9.42000008  58.34000015
H    18.75000000   7.86000013  53.92000198
H    21.35999870   7.96999979  53.15000153
H    23.71000099   8.43999958  53.64999771
H    22.47999954   9.52999973  57.68000031
H    14.11999893   8.80000019  57.75000000
H    25.27000046   9.09000015  55.25000000
H    24.93000031  10.06000042  56.59999847
S    13.60999966   7.53000021  53.09999847
C    10.95999908   7.13000011  53.85000229
C    12.18999958   7.67000008  54.13999939
C    12.55000019   8.10000038  55.45999908
C    11.46999931   8.30000019  56.31000137
C    10.14000034   7.96000004  56.00000000
C     9.03999996   8.23000050  56.86000061
C     7.73999977   7.90999985  56.53999710
C     7.46999979   7.42000008  55.22999573
C     8.50000000   7.13999987  54.36000061
C     9.85999966   7.40000010  54.69999695
C    13.97999954   8.10000038  55.73999786
C    14.63000107   7.92000008  54.50000000
C    16.02000046   7.82000017  54.50000000
C     6.05000019   7.03999996  54.88999939
H     5.68730164   7.53070974  53.98680878
H    10.72999954   6.65999985  52.90000153
H    11.59000015   8.69000053  57.31999969
H     9.22999954   8.36000061  57.91999817
H     6.98999977   8.14999962  57.29000092
H     8.27000046   6.77999973  53.36999893
H    16.47999954   7.63000011  53.53000259
H     5.46999979   7.27999973  55.79999924
H     5.98999977   5.95000029  54.86000061
S    17.65999985   9.50000000  51.97000122
C    20.36000061   9.75000000  51.23000336
C    19.07999992   9.32999992  50.91999817
C    18.71000099   8.84000015  49.62999725
C    19.70999908   8.60999966  48.69999695
C    21.02999878   8.98999977  49.01000214
C    22.14999962   8.67999935  48.16999817
C    23.45999908   8.89999962  48.50000000
C    23.78000069   9.56999969  49.71000290
C    22.72999954   9.92000008  50.52999878
C    21.37000084   9.63999939  50.24000168
C    17.27000046   8.71000004  49.50000000
C    16.54000092   9.02999973  50.66999817
C    15.19000053   9.35999966  50.63000107
C    25.22999954   9.81999969  50.04000092
H    25.63603401   9.01505375  50.65261459
H    20.52000046  10.13000011  52.23999786
H    19.50000000   8.01999950  47.81000137
H    22.01000023   8.30999947  47.15999985
H    24.18000031   8.52999973  47.76000214
H    22.98999977  10.36999893  51.49000168
H    14.75000000   9.81000042  51.51000214
H    25.79000092   9.92000008  49.09999847
H    25.28000069  10.81999969  50.48999786
S    14.04000092   7.69999981  47.18000031
C    11.35000038   7.53999996  47.94000244
C    12.63000011   7.96999979  48.22000122
C    12.98999977   8.57999992  49.45999908
C    11.97000027   8.85999966  50.34999847
C    10.65999985   8.36000061  50.17000198
C     9.67000008   8.67000008  51.13999939
C     8.36999989   8.28999996  50.90999985
C     8.01999950   7.51999950  49.77000427
C     8.97999954   7.34000015  48.80000305
C    10.34999943   7.69000006  48.93000031
C    14.42000008   8.85000038  49.56999969
C    15.11000061   8.36000061  48.43000031
C    16.48999977   8.42000008  48.36999893
C     6.60000038   7.11000013  49.43999863
H     6.06824732   7.86863422  48.86570358
H    11.03000069   7.09000015  47.01000214
H    12.20999908   9.40999985  51.25000000
H    10.03000069   9.19000053  52.02999878
H     7.59999990   8.69000053  51.56000137
H     8.59000015   6.90999985  47.88000107
H    16.97999954   8.07999992  47.45999908
H     6.14000034   6.90000010  50.41999817
H     6.65000010   6.17999983  48.87000275
