96

S    17.02999878   8.48999977  58.20999908
C    19.77000046   8.73999977  57.51999664
C    18.47999954   8.38000011  57.19999695
C    18.15000153   8.07999992  55.84000015
C    19.14999962   7.96000004  54.89999771
C    20.48000145   8.28999996  55.22999573
C    21.47000122   8.25000000  54.20000076
C    22.79000092   8.38999939  54.54000092
C    23.12999916   8.82999992  55.84999847
C    22.17000008   8.97000027  56.81999969
C    20.82999992   8.56000042  56.59999847
C    16.72000122   7.81000042  55.68000031
C    15.97000027   8.05999947  56.84999847
C    14.57999992   8.14000034  56.84999847
C    24.53000069   9.35000038  56.11000061
H    24.97127724   8.65961742  56.82884979
H    19.90999985   9.26999950  58.46000290
H    18.98999977   7.50000000  53.92000198
H    21.24000168   7.69999981  53.29000092
H    23.46999931   8.21000004  53.70999908
H    22.44999886   9.50000000  57.72999573
H    14.04000092   8.51000023  57.71999741
H    25.09000015   9.36999989  55.17000198
H    24.47999954  10.39000034  56.45000076
S    13.63999939   7.14999962  53.09999847
C    10.93000031   6.93000031  53.80000305
C    12.20999908   7.30000019  54.15000153
C    12.50000000   7.69999981  55.48999786
C    11.49000072   7.95000029  56.38999939
C    10.14999962   7.60999966  56.06999969
C     9.18000031   7.59999990  57.11000061
C     7.88000011   7.31999969  56.75000000
C     7.59000015   6.93000031  55.41999817
C     8.52999973   6.84000015  54.41999817
C     9.89000034   7.13999987  54.73999786
C    13.94999981   7.72000027  55.66999817
C    14.68999958   7.36999989  54.52000046
C    16.06999969   7.48000050  54.47999954
C     6.25999975   6.23000050  55.25000000
H     5.75709629   6.73998690  54.42835617
H    10.76000023   6.48999977  52.81999969
H    11.69999981   8.36999989  57.36999893
H     9.44999981   7.63999987  58.15999985
H     7.13000011   7.20000029  57.52999878
H     8.27999973   6.25999975  53.53000259
H    16.63999939   7.44000006  53.55999756
H     5.69999981   6.47000027  56.16000366
H     6.30000019   5.13999987  55.27000046
S    17.04000092   9.50000000  52.09999847
C    19.78000069   9.36999989  51.50000000
C    18.47999954   9.07999992  51.14999771
C    18.17000008   8.46000004  49.89999771
C    19.20999908   8.14999962  49.05000305
C    20.55999947   8.46000004  49.34000015
C    21.60000038   8.38999939  48.36000061
C    22.89999962   8.73000050  48.66000366
C    23.16999817   9.26999950  49.94999695
C    22.20000076   9.31999969  50.93000031
C    20.85000038   9.00000000  50.63999939
C    16.72999954   8.47999954  49.69999695
C    15.97000027   9.07999992  50.73999786
C    14.59000015   9.09000015  50.80999756
C    24.56000137   9.80000019  50.15999603
H    25.03148651   9.24993420  50.97438431
H    20.00000000  10.03999901  52.32999802
H    18.97999954   7.86999989  48.02000046
H    21.28999901   8.10999966  47.36000061
H    23.59999847   8.55000019  47.84999847
H    22.39000130   9.78999996  51.88999939
H    14.01000023   9.38000011  51.68000031
H    24.99000168   9.63000011  49.15999985
H    24.63999939  10.85999966  50.44000244
S    13.64999962   7.44999981  47.28000259
C    10.98000050   7.31999969  47.95000076
C    12.25000000   7.69000006  48.33000183
C    12.48000050   8.34000015  49.59000015
C    11.44000053   8.57999992  50.47000122
C    10.13000011   8.19999981  50.07999802
C     9.04999924   8.31999969  51.00000000
C     7.77999973   7.99000025  50.59000015
C     7.50999975   7.42999983  49.31000137
C     8.55000019   7.23000002  48.43999863
C     9.89000034   7.53999996  48.82999802
C    13.90999985   8.56999969  49.69999695
C    14.65999985   8.01999950  48.61999893
C    16.03999901   7.88999987  48.63999939
C     6.03999996   7.20000029  49.05000305
H     5.58373070   7.94143724  48.39411545
H    10.85999966   6.85999966  46.97999954
H    11.59999943   9.15000057  51.38000107
H     9.17000008   8.67000008  52.02999878
H     6.94999981   8.30999947  51.20999908
H     8.47999954   6.83000040  47.43000031
H    16.42000008   7.57000017  47.67000198
H     5.42000008   7.07999992  49.94999695
H     5.95000029   6.21000004  48.57999802
