96

S    17.25000000   9.18000031  58.13000107
C    19.96999931   9.30999947  57.48000336
C    18.70000076   8.90999985  57.14000320
C    18.35000038   8.32999992  55.86999893
C    19.37000084   8.30999947  54.93999863
C    20.71000099   8.60999966  55.27999878
C    21.80000114   8.31999969  54.40999985
C    23.03999901   8.89000034  54.61999893
C    23.36000061   9.42000008  55.89000320
C    22.36000061   9.64999962  56.81000137
C    21.02999878   9.22000027  56.55000305
C    16.94000053   8.01000023  55.77000046
C    16.22999954   8.30999947  56.95999908
C    14.85000038   8.30000019  57.04000092
C    24.77999878   9.81999969  56.22000122
H    25.19746399   9.24686909  57.04785538
H    20.10000038   9.77000046  58.46000290
H    19.18000031   8.06999969  53.89999771
H    21.65999985   7.76000023  53.48999786
H    23.77000046   8.86999989  53.81000137
H    22.63000107  10.06000042  57.77999878
H    14.37000084   8.64000034  57.95000076
H    25.42000008   9.90999985  55.34000015
H    24.71999931  10.84000015  56.60999680
S    13.73999977   7.35000038  53.34000015
C    10.98999977   7.30999994  54.00000000
C    12.28999996   7.55000019  54.34999847
C    12.69000053   8.03999996  55.63999939
C    11.67000008   8.38999939  56.50000000
C    10.31000042   8.02999973  56.29000092
C     9.30999947   8.18000031  57.29000092
C     8.01999950   7.76999998  57.04999924
C     7.67000008   7.20000029  55.79000092
C     8.64000034   7.11000013  54.81999969
C    10.00000000   7.50999975  54.99000168
C    14.11999893   8.02999973  55.86999893
C    14.82999992   7.63999987  54.71000290
C    16.21999931   7.57000017  54.65000153
C     6.21000004   6.88000011  55.56000137
H     5.79542255   7.50186586  54.76658630
H    10.67999935   6.97000027  53.01000214
H    11.77999973   8.73999977  57.52999878
H     9.55999947   8.64999962  58.23999786
H     7.22000027   7.92999983  57.77000046
H     8.38999939   6.53999996  53.93000031
H    16.82999992   7.26999998  53.80000305
H     5.49000025   6.98999977  56.37000275
H     6.11000013   5.84000015  55.22999573
S    17.61999893   9.65999985  52.16999817
C    20.32999992   9.63999939  51.52000046
C    19.04000092   9.26000023  51.19999695
C    18.76000023   8.69000053  49.92000198
C    19.68000031   8.63000011  48.88999939
C    20.97999954   9.10000038  49.18000031
C    22.00000000   9.01000023  48.18000031
C    23.31000137   9.26000023  48.48999786
C    23.62999916   9.77999973  49.78000259
C    22.63999939  10.03000069  50.70000076
C    21.31000137   9.59000015  50.48999786
C    17.32999992   8.45000076  49.79000092
C    16.60000038   8.96000004  50.90000153
C    15.21999931   8.96000004  51.02000427
C    25.09000015  10.03999901  50.05000305
H    25.52271271   9.55053711  50.92251968
H    20.62000084  10.11000061  52.44999695
H    19.43000031   8.14000034  47.95000076
H    21.71999931   8.61999989  47.21000290
H    24.04999924   8.85999966  47.81000137
H    22.95999908  10.42000008  51.66999817
H    14.67000008   9.21000004  51.93000031
H    25.68000031   9.71000004  49.19000244
H    25.29000092  11.10999966  50.13999939
S    14.11999893   7.82000017  47.35000229
C    11.42000008   8.05999947  47.90999985
C    12.71000004   8.15999985  48.36999893
C    13.04999924   8.60000038  49.68999863
C    12.03999996   8.89999962  50.59000015
C    10.70000076   8.69999981  50.18000031
C     9.65999985   8.60999966  51.16000366
C     8.34000015   8.46000004  50.80999756
C     8.02999973   8.07999992  49.47999954
C     9.00000000   8.11999989  48.50000000
C    10.36999893   8.31999969  48.82999802
C    14.48999977   8.60000038  49.87999725
C    15.19000053   8.19000053  48.72000122
C    16.56999969   8.05999947  48.67000198
C     6.67000008   7.51999950  49.13000107
H     6.17221022   8.13868141  48.38331604
H    11.26999950   7.65999985  46.90000153
H    12.28000069   9.22000027  51.59999847
H    10.00000000   8.76000023  52.18000031
H     7.55999994   8.45000076  51.56999969
H     8.73999977   7.82999992  47.49000168
H    17.06999969   7.88999987  47.71999741
H     6.02999973   7.51999950  50.01999664
H     6.83000040   6.50000000  48.74000168
