96

S    16.98999977   9.01000023  58.47000122
C    19.65999985   8.90999985  57.90999985
C    18.38999939   8.67999935  57.43000031
C    18.04000092   8.38000011  56.07999802
C    19.11000061   8.30999947  55.20000076
C    20.43000031   8.61999989  55.59000015
C    21.50000000   8.43999958  54.66999817
C    22.79000092   8.71999931  55.06000137
C    23.06999969   9.19999981  56.37000275
C    22.06000137   9.30000019  57.29000092
C    20.71000099   8.96000004  56.95999908
C    16.59000015   8.34000015  55.89000320
C    15.92000008   8.60999966  57.11000061
C    14.55000019   8.82999992  57.14000320
C    24.48999786   9.59000015  56.72000122
H    24.94601631   8.84184933  57.36839676
H    19.78000069   9.10000038  58.96999741
H    19.00000000   7.76999998  54.26000214
H    21.28000069   8.10999966  53.66000366
H    23.57000160   8.55000019  54.33000183
H    22.22999954   9.68000031  58.29999924
H    14.11000061   9.07999992  58.09999847
H    25.06999969   9.77999973  55.80999756
H    24.54999924  10.53999996  57.25999832
S    13.42000008   7.65999985  53.52000427
C    10.72999954   7.57999992  54.27000046
C    12.02000046   7.92999983  54.58000183
C    12.39999962   8.42000008  55.86999893
C    11.39000034   8.56000042  56.81000137
C    10.03999901   8.30000019  56.49000168
C     9.00000000   8.46000004  57.45999908
C     7.69999981   8.18000031  57.11000061
C     7.36999989   7.57000017  55.87999725
C     8.36000061   7.27999973  54.97000122
C     9.68999958   7.72000027  55.21999741
C    13.85000038   8.47999954  55.97999954
C    14.55000019   8.17000008  54.79000092
C    15.93999958   8.06999969  54.68000031
C     5.91000032   7.36000013  55.54000092
H     5.61810827   8.04345322  54.74263763
H    10.47000027   7.02000046  53.37999725
H    11.65999985   8.73000050  57.84999847
H     9.30999947   8.80999947  58.43999863
H     6.89000034   8.50000000  57.76000214
H     8.05999947   6.86999989  54.00000000
H    16.48999977   7.76000023  53.80000305
H     5.17000008   7.42000008  56.35000229
H     5.75999975   6.34000015  55.19000244
S    13.73000050   5.55999994  50.66999817
C    11.05000019   5.17000008  51.30000305
C    12.35999966   5.07000017  51.69000244
C    12.71999931   4.39000034  52.90000153
C    11.76000023   3.88000011  53.75000000
C    10.39999962   4.07999992  53.44999695
C     9.39000034   3.42000008  54.22000122
C     8.11999989   3.37000012  53.69999695
C     7.76999998   3.95000005  52.44999695
C     8.75000000   4.46999979  51.63000107
C    10.06999969   4.55999994  52.12999725
C    14.17000008   4.40000010  53.06999969
C    14.81999969   5.00000000  51.95000076
C    16.17000008   5.32999992  51.90999985
C     6.35999966   3.75000000  51.95000076
H     5.67759228   4.57457590  52.15614319
H    10.72999954   5.72000027  50.41999817
H    12.05999947   3.21000004  54.54999924
H     9.73999977   2.76999998  55.01999664
H     7.39000034   2.71000004  54.15999985
H     8.43000031   4.67000008  50.61000061
H    16.63999939   5.84999990  51.07999802
H     6.32999992   3.49000001  50.89000320
H     5.98999977   2.80999994  52.37999725
S    17.61000061   4.05000019  55.33000183
C    20.20999908   4.88999987  54.72000122
C    18.86999893   4.88000011  54.38999939
C    18.37000084   5.40999985  53.15999985
C    19.23999977   5.96000004  52.23999786
C    20.62999916   5.93999958  52.52999878
C    21.63000107   6.42000008  51.63999939
C    22.96999931   6.26999950  51.88000107
C    23.45999908   5.64000034  53.04999924
C    22.52000046   5.07999992  53.89999771
C    21.12999916   5.35000038  53.75000000
C    16.95000076   5.14999962  53.06000137
C    16.35000038   4.44999981  54.13999939
C    15.01999950   4.05999994  54.13000107
C    24.94999886   5.58000040  53.27999878
H    25.21340942   5.48745108  54.33363342
H    20.55999947   4.36999989  55.61000061
H    18.94000053   6.26999950  51.24000168
H    21.28999901   6.94000006  50.75000000
H    23.64000130   6.48000002  51.04000092
H    22.79000092   4.53000021  54.79000092
H    14.55999947   3.52999973  54.95999908
H    25.32999992   6.54999971  52.93000031
H    25.48000145   4.86999989  52.63000107
