96

S    17.06999969   8.92000008  58.11999893
C    19.71999931   9.06999969  57.37999725
C    18.43000031   8.78000069  57.00000000
C    18.00000000   8.38999939  55.68999863
C    18.96000099   8.19000053  54.71000290
C    20.30999947   8.48999977  55.00999832
C    21.28999901   8.19000053  54.02000046
C    22.62000084   8.45000076  54.26000214
C    23.01000214   9.03999996  55.48999786
C    22.03000069   9.35999966  56.40999603
C    20.65999985   8.98999977  56.31999969
C    16.54999924   8.28999996  55.61000061
C    15.88999939   8.61999989  56.81999969
C    14.50000000   8.71999931  56.86999893
C    24.44000053   9.39999962  55.81999969
H    24.75314903   8.94451046  56.75944901
H    20.02000046   9.28999996  58.40000153
H    18.86000061   7.73000002  53.73000336
H    20.93000031   7.71000004  53.11999893
H    23.36999893   8.36000061  53.47999954
H    22.25000000   9.77999973  57.37999725
H    14.11000061   9.02000046  57.84000015
H    25.07999802   9.02000046  55.00999832
H    24.46000099  10.50000000  55.77999878
S    13.30000019   7.59000015  53.23999786
C    10.65999985   7.39000034  54.06999969
C    11.95000076   7.76000023  54.36999893
C    12.25999928   8.18000031  55.70000076
C    11.23999977   8.27000046  56.63000107
C     9.89000034   7.96999979  56.32999802
C     8.84000015   7.86000013  57.29000092
C     7.55000019   7.55000019  56.93000031
C     7.26000023   7.03000021  55.63999939
C     8.30000019   6.94999981  54.75000000
C     9.61999989   7.40999985  55.04000092
C    13.71000099   8.32999992  55.79000092
C    14.37999916   8.03999996  54.58000183
C    15.77000046   7.97999954  54.48999786
C     5.84000015   6.71000004  55.22999573
H     5.41874456   7.39543295  54.49458694
H    10.48999977   6.86999989  53.13999939
H    11.46999931   8.51000023  57.67000198
H     9.02999973   8.23999977  58.29000092
H     6.76999998   7.72000027  57.67000198
H     8.11999989   6.60000038  53.73000336
H    16.21999931   7.75000000  53.53000259
H     5.28999996   6.67999983  56.18000031
H     5.96000004   5.69000006  54.84000397
S    13.94999981   5.45000029  50.28999710
C    11.31999969   4.86999989  50.80999756
C    12.63000011   4.67000008  51.18000031
C    13.12000084   4.23000002  52.44999695
C    12.13000107   3.88000011  53.34999847
C    10.76000023   3.95000005  52.98999786
C     9.77000046   3.49000001  53.89999771
C     8.42000008   3.58999991  53.67000198
C     7.95000029   4.18000031  52.45999908
C     8.89999962   4.59000015  51.55000305
C    10.31000042   4.44999981  51.72000122
C    14.55000019   4.42999983  52.63999939
C    15.14999962   5.09999990  51.55000305
C    16.46000099   5.56999969  51.62000275
C     6.48000002   4.44999981  52.22000122
H     6.06026363   3.84529543  51.41610336
H    11.07999992   5.47999954  49.94999695
H    12.39999962   3.28000021  54.20999908
H    10.08999920   3.07999992  54.85000229
H     7.71000004   3.25999999  54.41999817
H     8.57999992   5.23999977  50.75000000
H    16.93000031   5.88000011  50.68999863
H     6.05000019   4.25000000  53.20000076
H     6.40999985   5.53999996  52.06999969
S    17.86000061   4.01999998  54.94999695
C    20.56999969   4.25000000  54.18000031
C    19.22999954   4.46000004  53.92000198
C    18.72999954   5.09000015  52.72999573
C    19.68000031   5.51999998  51.83000183
C    21.07999992   5.42999983  52.04999924
C    22.04999924   5.92000008  51.12999725
C    23.38999939   5.82999992  51.38000107
C    23.85000038   5.22000027  52.58999634
C    22.92000008   4.74000025  53.47999954
C    21.51000023   4.76999998  53.25000000
C    17.28000069   5.15999985  52.68000031
C    16.62999916   4.59999990  53.81999969
C    15.31999969   4.13999987  53.76999664
C    25.28000069   5.46999979  52.98999786
H    25.61443710   5.00036573  53.91503525
H    20.95999908   3.89999986  55.13000107
H    19.36000061   6.00000000  50.90999985
H    21.59000015   6.38999987  50.26000214
H    24.05999947   6.32999992  50.68000031
H    23.22000122   4.34999990  54.45000076
H    14.91000080   3.70000005  54.68000031
H    25.50000000   6.53999996  52.84999847
H    25.84000015   4.98000002  52.18000031
