96

S    16.87000084   8.90999985  58.11000061
C    19.61000061   8.94999981  57.39999771
C    18.30999947   8.60999966  57.09999847
C    18.02999878   7.97999954  55.84999847
C    19.04999924   7.79999971  54.93999863
C    20.39999962   8.14999962  55.20999908
C    21.44000053   7.90000010  54.27000046
C    22.70000076   8.31999969  54.59999847
C    22.93000031   9.06999969  55.77999878
C    21.97999954   9.22999954  56.76000214
C    20.68000031   8.73000050  56.49000168
C    16.61000061   7.69000006  55.72000122
C    15.88000107   8.26000023  56.79000092
C    14.48999977   8.36000061  56.84999847
C    24.30999947   9.61000061  56.09000397
H    24.79598427   8.93820000  56.79753494
H    19.64999962   9.50000000  58.34000015
H    18.78999901   7.27999973  54.02000046
H    21.18999863   7.50000000  53.29000092
H    23.55999947   8.05000019  53.99000168
H    22.19000053   9.85999966  57.63000107
H    14.06000042   8.69999981  57.78999710
H    24.89000130   9.59000015  55.15999603
H    24.20000076  10.64000034  56.46999741
S    13.45999908   6.97000027  53.29999924
C    10.73999977   6.86999989  54.03999710
C    12.03999996   7.16000032  54.34999847
C    12.35000038   7.79999971  55.59999847
C    11.38000011   8.01000023  56.55000305
C    10.03999901   7.71000004  56.23000336
C     9.02000046   7.96999979  57.18999863
C     7.69999981   7.69000006  56.90999985
C     7.44000006   7.09000015  55.65000153
C     8.36000061   6.69000053  54.71000290
C     9.68999958   7.13000011  54.95999908
C    13.78999901   7.97999954  55.70000076
C    14.55000019   7.46999979  54.61000061
C    15.93000031   7.30000019  54.54999924
C     6.03999996   6.51999998  55.51000214
H     5.50600624   6.98991442  54.68408966
H    10.53999996   6.34999990  53.09999847
H    11.64000034   8.36000061  57.55000305
H     9.38000011   8.26000023  58.18000031
H     6.85999966   7.71000004  57.60000229
H     8.21000004   5.97000027  53.90999603
H    16.36999893   7.09999990  53.57999802
H     5.44000053   6.65000010  56.40999603
H     6.11000013   5.42999983  55.35999680
S    17.30999947   9.11000061  52.16999817
C    20.00999832   9.11000061  51.49000168
C    18.71999931   8.76999950  51.16000366
C    18.36000061   8.42000008  49.80999756
C    19.34000015   8.36000061  48.83999634
C    20.66999817   8.71000004  49.15999985
C    21.67000008   8.76999950  48.15000153
C    22.95999908   9.04999924  48.54000092
C    23.29999924   9.40999985  49.86999893
C    22.34000015   9.47000027  50.86000061
C    21.01000023   9.10000038  50.50000000
C    16.90999985   8.30000019  49.72000122
C    16.18000031   8.69000053  50.86999893
C    14.80000019   8.86999989  50.93000031
C    24.71999931   9.85999966  50.11000061
H    25.21703911   9.14284420  50.76325226
H    20.19000053   9.57999992  52.45999908
H    19.06999969   8.14999962  47.80000305
H    21.40999985   8.55000019  47.11000061
H    23.75000000   9.19000053  47.81000137
H    22.65999985   9.77999973  51.84999847
H    14.22999954   9.02999973  51.84000015
H    25.36999893   9.89000034  49.22999954
H    24.72999954  10.90000057  50.48999786
S    13.63999939   7.49000025  47.36999893
C    10.98000050   7.34000015  48.04999924
C    12.23999977   7.69999981  48.43999863
C    12.61999989   8.27999973  49.69999695
C    11.61000061   8.42000008  50.63000107
C    10.27999973   8.03999996  50.33000183
C     9.15000057   8.17000008  51.19999695
C     7.83999968   7.92999983  50.86999893
C     7.62000036   7.35000038  49.59000015
C     8.64000034   7.14999962  48.68000031
C     9.96999931   7.49000025  49.03999710
C    14.06000042   8.47000027  49.80999756
C    14.75000000   8.01000023  48.66000366
C    16.13000107   8.00000000  48.59000397
C     6.21000004   6.84000015  49.38999939
H     5.70611668   7.32259226  48.55255890
H    10.65999985   6.98999977  47.06999969
H    11.79999924   8.59000015  51.69000244
H     9.30999947   8.55000019  52.19999695
H     7.00999975   7.99000025  51.56999969
H     8.30000019   6.56000042  47.84000015
H    16.61999893   7.76000023  47.64999771
H     5.65000010   7.05999947  50.31000137
H     6.28999996   5.75000000  49.31000137
