96

S    16.93000031   8.97999954  58.08000183
C    19.60000038   9.06000042  57.31999969
C    18.29000092   8.86999989  56.95000076
C    17.86000061   8.30999947  55.70000076
C    18.85000038   7.99000025  54.79000092
C    20.20999908   8.26000023  55.07999802
C    21.32999802   8.05000019  54.22000122
C    22.63000107   8.34000015  54.54000092
C    23.01000214   8.82000065  55.83000183
C    21.97000122   9.01000023  56.70000076
C    20.61000061   8.73999977  56.37000275
C    16.40999985   8.21000004  55.65000153
C    15.72999954   8.69999981  56.79999924
C    14.34999943   8.67000008  56.90000153
C    24.38999939   9.30999947  56.20999908
H    24.93780327   8.68393993  56.91431427
H    19.93000031   9.44000053  58.27999878
H    18.59000015   7.55000019  53.82999802
H    21.09000015   7.82000017  53.18999863
H    23.38999939   8.23000050  53.76999664
H    22.13000107   9.52999973  57.63999939
H    13.78000069   8.93000031  57.78999710
H    24.93000031   9.59000015  55.30000305
H    24.23000145  10.26000023  56.72999954
S    13.20000076   7.13000011  53.36999893
C    10.50000000   7.17999983  54.01000214
C    11.77999973   7.57999992  54.33000183
C    12.15000057   8.18000031  55.58000183
C    11.10000038   8.43000031  56.44000244
C     9.75000000   8.14000034  56.13999939
C     8.76999950   8.30000019  57.15999985
C     7.44999981   8.02999973  56.86999893
C     7.13000011   7.37999964  55.65000153
C     8.06999969   7.14999962  54.66999817
C     9.43000031   7.51999950  54.87999725
C    13.59000015   8.21000004  55.80999756
C    14.26000023   7.69000006  54.68000031
C    15.64000034   7.77999973  54.55999756
C     5.71000004   6.90000010  55.47000122
H     5.31814528   7.32035303  54.54379654
H    10.43000031   6.48999977  53.18000031
H    11.28000069   8.78000069  57.45999908
H     9.00000000   8.67000008  58.15000153
H     6.63999987   8.38000011  57.50000000
H     7.78999996   6.71999979  53.70999908
H    16.13000107   7.26999998  53.73000336
H     5.19000006   7.13000011  56.40999603
H     5.82000017   5.82000017  55.31000137
S    13.86000061   5.38000011  50.33000183
C    11.23000050   4.80999994  50.97999954
C    12.56000042   4.53999996  51.19999695
C    13.00000000   3.89999986  52.41000366
C    12.05000019   3.35999990  53.25000000
C    10.65999985   3.58999991  53.04000092
C     9.65999985   3.16000009  53.95999908
C     8.32999992   3.38999987  53.72000122
C     7.96000004   4.07000017  52.52999878
C     8.85999966   4.51999998  51.59999847
C    10.24000072   4.25000000  51.83000183
C    14.40999985   4.18000031  52.65999603
C    15.00000000   4.92999983  51.60999680
C    16.31999969   5.35000038  51.72000122
C     6.48000002   4.34999990  52.36000061
H     5.95975733   3.77987099  51.59032440
H    10.98999977   5.38999987  50.10000229
H    12.30999947   2.82999992  54.15000153
H     9.88000011   2.71000004  54.92000198
H     7.53000021   3.09999990  54.38999939
H     8.53999996   5.21000004  50.83000183
H    16.72000122   5.92999983  50.89000320
H     6.02999973   4.13999987  53.34000015
H     6.39999962   5.42999983  52.21000290
S    17.70000076   3.75000000  55.04000092
C    20.36000061   4.30999994  54.34000015
C    19.02000046   4.48999977  54.09999847
C    18.55999947   5.14999962  52.91999817
C    19.44000053   5.59999990  51.95000076
C    20.82999992   5.46999979  52.18000031
C    21.80999947   5.97000027  51.29000092
C    23.15000153   5.82000017  51.56000137
C    23.59000015   5.23000002  52.77999878
C    22.67000008   4.75000000  53.68999863
C    21.28000069   4.84000015  53.40000153
C    17.12000084   4.98000002  52.81000137
C    16.47999954   4.28000021  53.87000275
C    15.14999962   3.88000011  53.81000137
C    25.05000114   4.92000008  53.00000000
H    25.36957359   5.36030006  53.94451523
H    20.72999954   3.75999975  55.20000076
H    19.19000053   6.01999998  50.97999954
H    21.40999985   6.25999975  50.31999969
H    23.90999985   6.02999973  50.81999969
H    22.98999977   4.32999992  54.64000320
H    14.70999908   3.30000019  54.61999893
H    25.68000031   5.28999996  52.18000031
H    25.29000092   3.84999990  53.02000046
