96

S    16.76000023   8.48999977  58.37999725
C    19.48999977   8.31999969  57.91999817
C    18.22000122   7.96999979  57.51999664
C    17.94999886   7.53999996  56.18000031
C    18.95000076   7.44000006  55.22999573
C    20.27000046   7.79999971  55.59999847
C    21.40000153   7.42000008  54.80999756
C    22.67999840   7.76000023  55.15999603
C    22.89999962   8.36999989  56.43000031
C    21.86000061   8.55000019  57.30999756
C    20.52999878   8.18000031  56.95999908
C    16.53000069   7.50999975  55.84999847
C    15.80999947   8.01000023  56.95999908
C    14.44000053   8.23999977  56.86000061
C    24.28999901   8.86999989  56.76000214
H    24.83903122   8.32809830  57.53007126
H    19.70999908   8.78999996  58.87000275
H    18.86999893   6.71000004  54.41999817
H    21.18000031   6.83000040  53.93000031
H    23.54999924   7.55000019  54.54999924
H    22.00000000   8.93000031  58.31999969
H    13.93000031   8.60000038  57.74000168
H    24.87999916   8.90999985  55.83000183
H    24.07999992   9.86999989  57.18000031
S    13.42000008   6.61000013  53.36999893
C    10.72000027   6.53999996  54.03999710
C    11.98999977   6.98000002  54.34000015
C    12.31999969   7.67000008  55.54000092
C    11.31999969   8.01000023  56.44000244
C     9.98999977   7.62000036  56.14999771
C     8.93000031   7.88000011  57.05999756
C     7.69000006   7.31999969  56.88000107
C     7.36999989   6.60000038  55.70000076
C     8.38999939   6.26999950  54.85000229
C     9.70000076   6.80999994  54.99000168
C    13.76000023   7.86000013  55.68999863
C    14.47000027   7.36999989  54.56999969
C    15.85999966   7.26000023  54.65000153
C     5.96000004   6.14000034  55.40999985
H     5.51383686   6.72072077  54.60265732
H    10.52000046   5.78999996  53.27999878
H    11.57999992   8.56000042  57.34000397
H     9.19999981   8.27999973  58.04000092
H     7.00999975   7.55999994  57.70000076
H     8.00000000   5.65000010  54.03999710
H    16.46000099   6.94000006  53.81000137
H     5.36000013   6.17999983  56.32999802
H     6.05000019   5.07999992  55.13999939
S    17.30999947   8.85000038  52.35000229
C    19.97999954   8.92000008  51.73999786
C    18.71000099   8.67000008  51.26999664
C    18.42000008   8.14999962  49.97000122
C    19.47000122   7.86999989  49.12000275
C    20.78000069   8.25000000  49.52000046
C    21.87000084   8.01999950  48.62999725
C    23.18000031   8.23000050  48.99000168
C    23.42000008   8.94999981  50.19000244
C    22.36999893   9.28999996  51.02000427
C    21.04000092   8.84000015  50.80999756
C    16.97000122   8.09000015  49.79000092
C    16.28000069   8.51000023  50.94999695
C    14.88999939   8.56000042  51.04999924
C    24.82999992   9.39999962  50.51000214
H    25.36013031   8.73375416  51.19057465
H    20.05000114   9.28999996  52.75000000
H    19.37000084   7.48000050  48.11000061
H    21.61000061   7.69999981  47.63000107
H    24.01000023   7.73000002  48.50000000
H    22.56000137   9.72999954  51.98999786
H    14.47000027   8.80000019  52.01000214
H    25.48999977   9.52999973  49.64000320
H    24.70999908  10.36000061  51.04000092
S    13.78000069   7.16000032  47.48000336
C    11.09000015   7.23000002  48.18000031
C    12.38999939   7.55999994  48.50999832
C    12.71000004   8.10999966  49.79000092
C    11.69000053   8.30999947  50.70000076
C    10.36999893   7.90000010  50.43000031
C     9.35999966   7.88000011  51.44000244
C     8.05999947   7.57999992  51.12999725
C     7.76000023   7.26999998  49.78000259
C     8.67000008   7.26999998  48.75000000
C    10.03999901   7.44999981  49.09999847
C    14.15999985   8.14000034  49.92000198
C    14.86999989   7.76000023  48.75000000
C    16.25000000   7.75000000  48.63999939
C     6.30999994   6.91999960  49.52000046
H     5.89132452   7.53736925  48.72522736
H    10.90000057   6.70000029  47.25000000
H    12.01000023   8.52000046  51.72000122
H     9.68999958   8.03999996  52.47000122
H     7.37999964   7.28999996  51.93000031
H     8.55000019   7.00000000  47.70000076
H    16.84000015   7.27999973  47.84999847
H     5.65000010   7.03000021  50.38000107
H     6.38999987   5.84999990  49.27999878
