96

S    16.61000061   8.94999981  58.26000214
C    19.27999878   9.02000046  57.58999634
C    18.02999878   8.53999996  57.28000259
C    17.68000031   8.03999996  55.98999786
C    18.64999962   7.97999954  55.00000000
C    19.97999954   8.36000061  55.30000305
C    21.04000092   8.32999992  54.34999847
C    22.34000015   8.75000000  54.58000183
C    22.60000038   9.30000019  55.86000061
C    21.65999985   9.21000004  56.86000061
C    20.30999947   8.84000015  56.62000275
C    16.22999954   8.05999947  55.81999969
C    15.50000000   8.53999996  56.93999863
C    14.11000061   8.60000038  56.93999863
C    24.04999924   9.61000061  56.16000366
H    24.39962387   8.93929386  56.94487000
H    19.56999969   9.30999947  58.59000397
H    18.54999924   7.50000000  54.03999710
H    20.88000107   7.82000017  53.40999985
H    23.09000015   8.55000019  53.81999969
H    21.96000099   9.53999996  57.84999847
H    13.63000011   8.76000023  57.90000153
H    24.63000107   9.39999962  55.25000000
H    24.11999893  10.70000076  56.26999664
S    12.98999977   7.36000013  53.34000015
C    10.26999950   7.31999969  54.09999847
C    11.57999992   7.65999985  54.38000107
C    11.96000004   8.14999962  55.66999817
C    11.00999928   8.23000050  56.66999817
C     9.68000031   7.82000017  56.45999908
C     8.69999981   7.82000017  57.49000168
C     7.44999981   7.30999994  57.25000000
C     7.03999996   6.98000002  55.93000031
C     8.00000000   6.84999990  54.94999695
C     9.32999992   7.31999969  55.15999603
C    13.40000057   8.34000015  55.77000046
C    14.09999943   7.82999992  54.64000320
C    15.47000027   7.63999987  54.72000122
C     5.65999985   6.43000031  55.63999939
H     5.21445656   6.96040869  54.79841995
H     9.94999981   6.98999977  53.11999893
H    11.38000011   8.63000011  57.61000061
H     8.93000031   8.30999947  58.43000031
H     6.80999994   7.09000015  58.09999847
H     7.73999977   6.44999981  53.97999573
H    15.98000050   7.14999962  53.88999939
H     4.97000027   6.39999962  56.47999573
H     5.88000011   5.38000011  55.40999985
S    13.52000046   5.45000029  50.40000153
C    10.93999958   4.74000025  51.20999908
C    12.30000019   4.67000008  51.42000198
C    12.86999893   4.05999994  52.58999634
C    12.02000046   3.49000001  53.52000427
C    10.62000084   3.58000016  53.33000183
C     9.70000076   2.93000007  54.19000244
C     8.34000015   2.96999979  54.01000214
C     7.79999971   3.81000018  53.00000000
C     8.64000034   4.40000010  52.08000183
C    10.03999901   4.21000004  52.16999817
C    14.28999996   4.34999990  52.71999741
C    14.77000046   5.10999966  51.62000275
C    16.10999870   5.47999954  51.59000015
C     6.30999994   3.79999995  52.72999573
H     5.96089172   3.59338498  51.71829605
H    10.55999947   5.51999998  50.54999924
H    12.46999931   2.82000017  54.25000000
H    10.01999950   2.32999992  55.04000092
H     7.71000004   2.27999997  54.56999969
H     8.27999973   4.94999981  51.22000122
H    16.50000000   6.02999973  50.73999786
H     5.82999992   3.05000019  53.36999893
H     5.91000032   4.78999996  52.97000122
S    17.59000015   3.94000006  55.00999832
C    20.22999954   4.32999992  54.26000214
C    18.89999962   4.55999994  53.99000168
C    18.39999962   5.15999985  52.78999710
C    19.40000153   5.56999969  51.93000031
C    20.79000092   5.40000010  52.14000320
C    21.84000015   5.91000032  51.31999969
C    23.15000153   5.75000000  51.68000031
C    23.54999924   5.09000015  52.87000275
C    22.60000038   4.59000015  53.72000122
C    21.22999954   4.76000023  53.34999847
C    16.95000076   5.05999994  52.63000107
C    16.43000031   4.34999990  53.74000168
C    15.08999920   3.98999977  53.81000137
C    25.03000069   4.88000011  53.09999847
H    25.32913399   5.32869864  54.04725266
H    20.62999916   3.82999992  55.13999939
H    19.05999947   6.05999994  51.02000427
H    21.61000061   6.50000000  50.44000244
H    23.95000076   6.19000006  51.07999802
H    22.82999992   3.94000006  54.55999756
H    14.78000069   3.38000011  54.65000153
H    25.59999847   5.32999992  52.28000259
H    25.31999969   3.81999993  53.15999985
