96

S    17.13999939   8.61999989  58.29999924
C    19.85999870   8.76000023  57.61000061
C    18.55999947   8.51000023  57.23999786
C    18.17000008   8.11999989  55.91999817
C    19.13999939   7.96000004  54.93999863
C    20.48000145   8.25000000  55.31000137
C    21.55999947   8.10999966  54.40000153
C    22.88999939   8.30999947  54.69999695
C    23.22999954   8.71999931  56.02000427
C    22.23999977   8.92000008  56.95000076
C    20.88000107   8.67000008  56.62000275
C    16.73999977   7.99000025  55.70999908
C    16.07999992   8.15999985  56.95000076
C    14.70000076   8.11999989  57.06999969
C    24.67000008   9.06000042  56.33999634
H    25.16247368   8.49615383  57.13223648
H    20.17999840   9.06000042  58.61000061
H    18.84000015   7.79999971  53.90999603
H    21.28999901   8.05000019  53.34999847
H    23.68000031   8.17000008  53.96999741
H    22.46000099   9.22000027  57.97000122
H    14.28999996   8.27999973  58.06000137
H    25.22000122   8.86999989  55.40999985
H    24.71999931  10.14999962  56.45999908
S    13.43999958   7.30999994  53.36999893
C    10.77999973   7.07000017  54.20000076
C    12.06999969   7.42999983  54.48999786
C    12.48999977   7.82000017  55.80999756
C    11.54999924   7.99000025  56.81000137
C    10.19000053   7.75000000  56.52000046
C     9.19999981   7.71000004  57.55000305
C     7.88999987   7.42000008  57.21000290
C     7.46000004   7.09999990  55.89000320
C     8.45000076   6.97000027  54.94999695
C     9.81999969   7.23999977  55.22999573
C    13.94000053   7.90999985  55.90999985
C    14.59000015   7.60999966  54.68999863
C    15.98000050   7.60999966  54.59999847
C     6.01000023   6.81999969  55.56000137
H     5.61215830   7.54464054  54.84956741
H    10.34999943   6.78999996  53.23999786
H    11.82999992   8.17000008  57.84999847
H     9.53999996   7.76000023  58.56999969
H     7.22000027   7.42000008  58.06000137
H     8.19000053   6.83000040  53.90999603
H    16.28000069   7.25000000  53.61999893
H     5.44000053   6.80999994  56.49000168
H     5.98000002   5.78999996  55.18000031
S    17.35000038   9.68000031  52.12999725
C    20.05000114   9.63999939  51.51000214
C    18.77000046   9.27999973  51.13999939
C    18.37000084   8.78999996  49.86000061
C    19.40000153   8.71999931  48.94000244
C    20.75000000   8.96000004  49.27000046
C    21.87000084   8.88000011  48.37999725
C    23.16999817   9.11000061  48.75000000
C    23.47999954   9.55999947  50.06000137
C    22.43999863   9.72999954  50.94999695
C    21.09999847   9.39000034  50.59999847
C    16.93000031   8.56999969  49.71000290
C    16.27000046   9.04999924  50.86999893
C    14.88999939   9.06000042  50.96000290
C    24.90999985   9.89000034  50.44000244
H    25.34330940   9.15834618  51.12192917
H    20.32999992  10.03000069  52.49000168
H    19.13999939   8.42000008  47.93000031
H    21.60000038   8.61999989  47.36000061
H    23.92999840   9.02000046  47.97999954
H    22.65999985  10.01000023  51.97000122
H    14.30999947   9.25000000  51.86999893
H    25.50000000   9.84000015  49.52000046
H    24.99000168  10.92000008  50.81999969
S    13.71999931   7.57999992  47.42000198
C    11.03000069   7.77999973  48.02000046
C    12.32999992   7.99000025  48.43000031
C    12.68000031   8.38000011  49.75999832
C    11.64999962   8.57999992  50.66999817
C    10.29999924   8.36000061  50.30000305
C     9.22000027   8.64000034  51.18999863
C     7.92999983   8.36999989  50.79999924
C     7.69000006   7.60999966  49.62999725
C     8.65999985   7.53000021  48.66000366
C    10.01000023   7.82999992  49.00000000
C    14.11999893   8.53999996  49.92000198
C    14.78000069   8.06999969  48.75000000
C    16.17000008   8.03999996  48.66000366
C     6.30000019   7.07999992  49.33000183
H     5.78848934   7.57730198  48.50589752
H    10.78999996   7.30000019  47.06999969
H    11.77999973   8.93000031  51.69000244
H     9.55000019   9.06000042  52.14000320
H     7.11999989   8.56999969  51.49000168
H     8.43999958   7.11999989  47.67000198
H    16.63999939   7.65999985  47.76000214
H     5.73000002   7.26999998  50.24000168
H     6.35999966   5.98999977  49.23999786
