96

S    17.02000046   9.11999989  58.30999756
C    19.78000069   9.02999973  57.69000244
C    18.46999931   8.82000065  57.32999802
C    18.12999916   8.23999977  56.06999969
C    19.11000061   8.07999992  55.10000229
C    20.46999931   8.27000046  55.45000076
C    21.53000069   8.01999950  54.52999878
C    22.86999893   8.19000053  54.79999924
C    23.18000031   8.88000011  56.00000000
C    22.17000008   9.17000008  56.88999939
C    20.81000137   8.78000069  56.75000000
C    16.69000053   8.09000015  55.89000320
C    15.95000076   8.51000023  57.02999878
C    14.56999969   8.65999985  57.00000000
C    24.60000038   9.26999950  56.32999802
H    24.97725296   8.70768166  57.18415070
H    19.92000008   9.55999947  58.62999725
H    18.89000130   7.83999968  54.06999969
H    21.31000137   7.65999985  53.53000259
H    23.59999847   7.86999989  54.06999969
H    22.34000015   9.63000011  57.87000275
H    14.11000061   8.85000038  57.95999908
H    25.17000008   9.10000038  55.40000153
H    24.67000008  10.34999943  56.52999878
S    13.43000031   7.36000013  53.41999817
C    10.77000046   7.34000015  54.08000183
C    12.05000019   7.59999990  54.51000214
C    12.38000011   8.02999973  55.84000015
C    11.36999989   8.02999973  56.79000092
C    10.03000069   7.82000017  56.38000107
C     8.97999954   7.75000000  57.34000397
C     7.71000004   7.35000038  56.98999786
C     7.44000006   6.89000034  55.66999817
C     8.40999985   6.98999977  54.69999695
C     9.72999954   7.39000034  55.05000305
C    13.81999969   8.19999981  55.90999985
C    14.52000046   7.79999971  54.75000000
C    15.90999985   7.73000002  54.79000092
C     6.03999996   6.42000008  55.34000015
H     5.46755314   7.14986992  54.76755524
H    10.59000015   6.85999966  53.13000107
H    11.68000031   8.38999939  57.77000046
H     9.17000008   8.23000050  58.29000092
H     6.86999989   7.40000010  57.69000244
H     8.23000050   6.71999979  53.66000366
H    16.39999962   7.27999973  53.92000198
H     5.50000000   6.26999950  56.27999878
H     6.06999969   5.52999973  54.69999695
S    17.35000038   9.15999985  52.18999863
C    20.02000046   9.22999954  51.50000000
C    18.73999977   8.86999989  51.12999725
C    18.36000061   8.30000019  49.86999893
C    19.40999985   8.14999962  48.99000168
C    20.72999954   8.56999969  49.29000092
C    21.84000015   8.34999943  48.41999817
C    23.13999939   8.64999962  48.77999878
C    23.44000053   9.25000000  50.02999878
C    22.40999985   9.47000027  50.91999817
C    21.09999847   9.02000046  50.59999847
C    16.92000008   8.23000050  49.69999695
C    16.27000046   8.60999966  50.90000153
C    14.88000011   8.69999981  50.93999863
C    24.84000015   9.72000027  50.37000275
H    25.37471390   8.97140026  50.95462036
H    20.13000107   9.72000027  52.45999908
H    19.36000061   7.49000025  48.13000107
H    21.63000107   7.92000008  47.44999695
H    23.95999908   8.43999958  48.11000061
H    22.53000069   9.94999981  51.88000107
H    14.42999935   9.01000023  51.88000107
H    25.51000214   9.92999935  49.52000046
H    24.82000160  10.71000004  50.84000015
S    13.78999901   7.50999975  47.23999786
C    11.05000019   7.69999981  47.91999817
C    12.36999989   7.76999998  48.27000046
C    12.76000023   8.21000004  49.58000183
C    11.73999977   8.51000023  50.47000122
C    10.39000034   8.14000034  50.20999908
C     9.43000031   8.45000076  51.20999908
C     8.11999989   8.46000004  50.77000046
C     7.68000031   8.00000000  49.50000000
C     8.61999989   7.62000036  48.56999969
C    10.00000000   7.85000038  48.86000061
C    14.19000053   8.31999969  49.78000259
C    14.85999966   7.88000011  48.61000061
C    16.25000000   7.83999968  48.53000259
C     6.23000050   7.77999973  49.13000107
H     5.85887671   8.39378166  48.30924606
H    10.77999973   7.26000023  46.95999908
H    11.97999954   8.82999992  51.47999573
H     9.68000031   8.73000050  52.22999954
H     7.36000013   8.89000034  51.40999603
H     8.43000031   7.17000008  47.60000229
H    16.67000008   7.57999992  47.56000137
H     5.55000019   8.01999950  49.94999695
H     6.17000008   6.70000029  48.95000076
