96

S    16.92000008   8.80000019  58.22000122
C    19.68000031   8.82000065  57.56999969
C    18.37000084   8.57999992  57.22999954
C    18.02999878   8.17000008  55.90000153
C    19.06999969   7.96000004  55.00999832
C    20.39999962   8.34999943  55.27000046
C    21.40999985   8.19999981  54.27000046
C    22.72000122   8.36999989  54.65999985
C    23.06999969   8.82000065  55.96000290
C    22.11000061   8.88000011  56.93999863
C    20.72999954   8.69999981  56.63000107
C    16.59000015   8.05000019  55.68000031
C    15.86999989   8.28999996  56.88000107
C    14.51000023   8.53999996  56.88000107
C    24.47999954   9.26999950  56.29000092
H    24.97249603   8.52768803  56.91810989
H    19.93000031   9.00000000  58.61000061
H    18.84000015   7.63999987  54.00000000
H    21.18999863   7.63999987  53.36999893
H    23.54999924   8.13000011  54.01000214
H    22.34999847   9.07999992  57.97999954
H    14.00000000   8.80999947  57.80000305
H    25.06000137   9.52999973  55.38999939
H    24.34999847  10.21999931  56.81999969
S    13.38000107   7.69999981  53.20000076
C    10.70000076   7.32999992  54.06000137
C    11.95000076   7.86999989  54.23999786
C    12.30999947   8.38000011  55.52999878
C    11.36000061   8.50000000  56.52000046
C    10.03999901   8.01999950  56.32999802
C     9.00000000   8.15999985  57.29999924
C     7.72000027   7.75000000  56.98999786
C     7.42000008   7.04999971  55.79000092
C     8.45000076   6.75000000  54.93000031
C     9.72999954   7.36000013  55.08999634
C    13.75000000   8.36000061  55.70999908
C    14.48999977   8.09000015  54.52999878
C    15.86999989   7.88999987  54.48999786
C     6.01999998   6.61000013  55.44000244
H     5.48871946   7.27587175  54.75996017
H    10.25000000   6.97000027  53.13999939
H    11.63000011   8.82000065  57.51999664
H     9.22999954   8.48999977  58.30999756
H     6.97000027   7.96000004  57.74000168
H     8.30000019   6.28000021  53.96999741
H    16.39999962   7.55000019  53.61000061
H     5.44000053   6.48000002  56.36000061
H     6.12999964   5.59000015  55.06000137
S    14.04000092   5.58000040  50.38000107
C    11.36000061   5.05999994  51.03000259
C    12.69999981   4.88000011  51.30000305
C    13.07999992   4.32000017  52.56000137
C    12.13000107   3.79999995  53.41999817
C    10.75000000   3.88999987  53.09000015
C     9.72999954   3.40000010  53.95999908
C     8.38999939   3.51999998  53.68000031
C     7.96999979   4.13000011  52.45999908
C     8.94999981   4.57999992  51.60999680
C    10.34999943   4.51000023  51.86000061
C    14.51000023   4.51000023  52.76000214
C    15.15999985   5.14999962  51.68000031
C    16.54000092   5.35000038  51.66999817
C     6.51000023   4.40000010  52.21000290
H     6.13342285   4.04473877  51.25079727
H    10.95999908   5.60999966  50.18000031
H    12.48000050   3.50000000  54.40999985
H    10.03999901   2.92000008  54.87999725
H     7.68000031   3.12000012  54.40000153
H     8.57999992   5.13000011  50.75000000
H    17.04000092   5.82999992  50.83000183
H     6.01000023   3.86999989  53.02999878
H     6.42000008   5.47999954  52.35000229
S    17.77000046   3.91999984  55.19000244
C    20.50000000   4.05000019  54.41999817
C    19.15999985   4.23000002  54.13999939
C    18.71999931   4.84000015  52.91999817
C    19.70000076   5.50000000  52.19999695
C    21.07999992   5.21000004  52.36999893
C    22.10000038   5.82000017  51.59000015
C    23.43000031   5.53999996  51.83000183
C    23.84000015   4.67999983  52.88000107
C    22.88999939   4.23000002  53.75999832
C    21.50000000   4.41000032  53.48999786
C    17.28000069   4.85000038  52.74000168
C    16.62999916   4.35999966  53.90999603
C    15.26000023   4.11000013  53.88000107
C    25.27000046   4.25000000  53.09000015
H    25.60443497   4.71963501  54.01503754
H    20.75000000   3.67000008  55.40999985
H    19.44000053   6.14000034  51.36000061
H    21.77999878   6.61999989  50.93000031
H    24.17000008   5.88999987  51.11999893
H    23.21000099   3.71000004  54.66999817
H    14.80999947   3.58999991  54.72000122
H    25.84000015   4.48999977  52.18000031
H    25.42000008   3.16000009  53.13000107
