96

S    16.69000053   8.80000019  58.26000214
C    19.37000084   8.76999950  57.57999802
C    18.07999992   8.38999939  57.25000000
C    17.73999977   7.82999992  55.97999954
C    18.70000076   7.71000004  54.99000168
C    20.05000114   8.03999996  55.27000046
C    21.04000092   7.94000053  54.26000214
C    22.30999947   8.43999958  54.47999954
C    22.57999802   9.02000046  55.73999786
C    21.60000038   9.26000023  56.68000031
C    20.31999969   8.67000008  56.53999710
C    16.28999901   7.73000002  55.84999847
C    15.59999943   8.25000000  56.97000122
C    14.21000004   8.31999969  57.02999878
C    24.02000046   9.30000019  56.13999939
H    24.48879623   8.53998184  56.76506042
H    19.55999947   9.43000031  58.41999817
H    18.45999908   7.30000019  54.02000046
H    20.72999954   7.63000011  53.26000214
H    23.12000084   8.31999969  53.76999664
H    21.77999878   9.82999992  57.58999634
H    13.69999981   8.47999954  57.97000122
H    24.60000038   9.40999985  55.21999741
H    23.97999954  10.26000023  56.65999985
S    13.09999943   6.90000010  53.47000122
C    10.40999985   6.80999994  54.13000107
C    11.69000053   7.11000013  54.52999878
C    12.07999992   7.55000019  55.84000015
C    11.07999992   7.64999962  56.79000092
C     9.72999954   7.44999981  56.44000244
C     8.61999989   7.62000036  57.32999802
C     7.35000038   7.21000004  57.00000000
C     7.05999947   6.97000027  55.63000107
C     8.05999947   6.85999966  54.68999863
C     9.40999985   7.03999996  55.10000229
C    13.48999977   7.88999987  55.90000153
C    14.19000053   7.49000025  54.73999786
C    15.57000065   7.32999992  54.72000122
C     5.66999960   6.52999973  55.22999573
H     5.37851048   7.04188347  54.31287384
H    10.14999962   6.44999981  53.13000107
H    11.28000069   7.88000011  57.83000183
H     8.92000008   8.01999950  58.29000092
H     6.56000042   7.17000008  57.74000168
H     7.90999985   6.48999977  53.68000031
H    16.03000069   7.05999947  53.76999664
H     5.00000000   6.80999994  56.05999756
H     5.65000010   5.44000053  55.20999908
S    13.67000008   5.07000017  50.52000046
C    11.06999969   4.39000034  51.31999969
C    12.42000008   4.35999966  51.56000137
C    12.92000008   3.77999997  52.77000046
C    12.06999969   3.12000012  53.63999939
C    10.70000076   3.05999994  53.31999969
C     9.71000004   2.61999989  54.23999786
C     8.36999989   2.93000007  54.15999985
C     7.86999989   3.51999998  52.97000122
C     8.73999977   3.91000009  51.97999954
C    10.14000034   3.74000025  52.18000031
C    14.37000084   3.88000011  52.85999680
C    14.86999989   4.56999969  51.72999954
C    16.22999954   4.79999971  51.65000153
C     6.38000011   3.68999982  52.77999878
H     6.04591131   3.31326151  51.81327438
H    10.75000000   5.05999994  50.52999878
H    12.39999962   2.71000004  54.59000015
H    10.10000038   2.05999994  55.08999634
H     7.77999973   2.75000000  55.05000305
H     8.39999962   4.33999968  51.04000092
H    16.69000053   5.38000011  50.84999847
H     5.84000015   3.12000012  53.54999924
H     6.05999994   4.73000002  52.88999939
S    17.72999954   3.47000003  55.07999802
C    20.40999985   3.88000011  54.31000137
C    19.05999947   3.95000005  54.02000046
C    18.51000023   4.48999977  52.81999969
C    19.40000153   4.92999983  51.86000061
C    20.79000092   5.00999975  52.15000153
C    21.70000076   5.68000031  51.29000092
C    23.02999878   5.82999992  51.59999847
C    23.51000023   5.32999992  52.84000015
C    22.67999840   4.63999987  53.69999695
C    21.30000114   4.51999998  53.40000153
C    17.05999947   4.39000034  52.70000076
C    16.48999977   3.78999996  53.85000229
C    15.14999962   3.45000005  53.95000076
C    24.96999931   5.52999973  53.20000076
H    25.31148720   5.11025524  54.14620209
H    20.78000069   3.37000012  55.19000244
H    19.04000092   5.22000027  50.87999725
H    21.35999870   6.12999964  50.35999680
H    23.59000015   6.26999950  50.77999878
H    23.06999969   4.23999977  54.62999725
H    14.67000008   2.89000010  54.73999786
H    25.15999985   6.60000038  53.04000092
H    25.59000015   5.09999990  52.41000366
