96

S    17.20999908   9.06999969  58.37999725
C    19.90999985   9.21000004  57.63000107
C    18.63000107   8.80999947  57.35000229
C    18.27000046   8.10999966  56.14999771
C    19.23999977   7.77999973  55.21999741
C    20.56999969   8.19000053  55.48999786
C    21.57999992   7.96000004  54.52000046
C    22.89999962   8.27000046  54.78000259
C    23.29999924   8.88000011  56.00000000
C    22.32000160   9.07999992  56.93999863
C    20.93000031   8.89000034  56.70000076
C    16.82999992   7.92999983  56.04999924
C    16.10000038   8.36999989  57.18999863
C    14.72000027   8.51000023  57.25000000
C    24.71999931   9.38000011  56.16000366
H    25.18911552   8.88956165  57.01293945
H    20.07999802   9.63999939  58.61000061
H    18.85000038   7.28999996  54.33000183
H    21.27000046   7.63999987  53.53000259
H    23.57999992   8.15999985  53.95000076
H    22.50000000   9.63000011  57.87000275
H    14.23999977   8.88000011  58.15000153
H    25.27000046   9.19999981  55.22999573
H    24.72999954  10.47999954  56.19999695
S    13.63000011   7.36999989  53.61000061
C    10.88000107   7.51999950  54.25000000
C    12.20000076   7.69999981  54.61000061
C    12.55000019   8.18000031  55.90999985
C    11.59000015   8.51000023  56.84999847
C    10.24000072   8.30999947  56.46999741
C     9.22000027   8.38999939  57.45999908
C     7.94000053   7.97999954  57.18999863
C     7.57000017   7.49000025  55.90999985
C     8.50000000   7.44000006  54.89999771
C     9.85000038   7.76999998  55.19000244
C    13.99000072   8.13000011  56.11999893
C    14.70999908   7.67000008  54.99000168
C    16.09000015   7.50000000  54.94999695
C     6.11999989   7.13999987  55.65999985
H     5.80815029   7.28175020  54.62522507
H    10.72999954   7.03999996  53.29000092
H    11.95000076   8.69000053  57.85999680
H     9.56999969   8.76000023  58.41999817
H     7.21000004   8.28999996  57.94000244
H     8.27999973   7.04999971  53.90999603
H    16.55999947   7.13999987  54.03999710
H     5.58000040   7.90999985  56.20999908
H     5.86000013   6.15999985  56.07999802
S    13.53000069   5.40000010  50.77999878
C    10.85999966   4.86999989  51.47999573
C    12.20999908   4.76999998  51.77000046
C    12.69000053   4.19000006  52.98999786
C    11.69999981   3.86999989  53.89999771
C    10.31999969   3.95000005  53.62999725
C     9.35000038   3.32999992  54.47999954
C     8.00000000   3.30999994  54.22000122
C     7.59999990   3.75999975  52.93000031
C     8.46000004   4.38000011  52.04999924
C     9.85000038   4.38000011  52.34000397
C    14.14000034   4.11999989  53.02999878
C    14.73999977   4.67999983  51.86999893
C    16.07999992   5.03999996  51.79000092
C     6.21999979   3.30000019  52.52999878
H     5.80178499   3.90960145  51.72901154
H    10.52999973   5.26999998  50.52999878
H    12.06999969   3.17999983  54.65999985
H     9.72000027   2.71000004  55.28999710
H     7.42000008   2.70000005  54.89999771
H     8.14000034   4.84000015  51.11999893
H    16.42000008   5.60999966  50.93000031
H     6.25000000   2.21000004  52.37999725
H     5.59000015   3.50000000  53.40000153
S    17.59000015   3.48000002  55.14999771
C    20.20000076   3.82999992  54.38000107
C    18.88000107   4.13999987  54.13000107
C    18.34000015   4.86999989  53.02000046
C    19.26000023   5.44000053  52.16999817
C    20.62999916   5.17000008  52.38999939
C    21.63000107   5.65999985  51.50000000
C    22.98000145   5.53999996  51.76000214
C    23.45000076   4.98000002  52.97999954
C    22.53999901   4.30999994  53.76999664
C    21.14999962   4.44999981  53.52000427
C    16.90000153   4.71000004  52.87000275
C    16.36000061   3.97000027  53.95999908
C    15.00000000   3.71000004  54.05000305
C    24.93999863   4.76999998  53.13999939
H    25.35942268   5.26762056  54.01438904
H    20.59000015   3.32999992  55.26000214
H    18.94000053   6.10000038  51.36000061
H    21.38000107   6.21000004  50.59999847
H    23.65999985   5.78000021  50.94999695
H    22.86999893   3.67000008  54.58000183
H    14.61999989   3.25000000  54.95999908
H    25.52000046   4.94999981  52.22999954
H    24.99000168   3.68999982  53.31999969
