96

S    17.05999947   8.92000008  58.06999969
C    19.73999977   9.03999996  57.36999893
C    18.46999931   8.59000015  57.05999756
C    18.06999969   8.09000015  55.77999878
C    19.12999916   7.79999971  54.93999863
C    20.45999908   8.19000053  55.21999741
C    21.42999840   8.27000046  54.18000031
C    22.69000053   8.73000050  54.45999908
C    23.09000015   9.22000027  55.73999786
C    22.09000015   9.40999985  56.66999817
C    20.78000069   8.92000008  56.42000198
C    16.62999916   8.03999996  55.56999969
C    15.95999908   8.47999954  56.75000000
C    14.57999992   8.45000076  56.88999939
C    24.53000069   9.59999943  55.97999954
H    24.90064812   8.99413490  56.80683136
H    19.81999969   9.48999977  58.36000061
H    18.89999962   7.40999985  53.95000076
H    21.19999886   8.01000023  53.15000153
H    23.42000008   8.55000019  53.67000198
H    22.29000092   9.98000050  57.56999969
H    14.09000015   8.71000004  57.83000183
H    25.17999840   9.59000015  55.10000229
H    24.53000069  10.65000057  56.31000137
S    13.35000038   7.14999962  53.29999924
C    10.64000034   7.02000046  54.05000305
C    11.92999935   7.36000013  54.34999847
C    12.36999989   7.94000053  55.58000183
C    11.39000034   8.10000038  56.55000305
C    10.03999901   7.76999998  56.30000305
C     9.02999973   7.79999971  57.30999756
C     7.69999981   7.68000031  57.00000000
C     7.28999996   7.22000027  55.72000122
C     8.26000023   7.00999975  54.75999832
C     9.63000011   7.28999996  55.00999832
C    13.80000019   8.10000038  55.77999878
C    14.44000053   7.68000031  54.59000015
C    15.82999992   7.65999985  54.48999786
C     5.86999989   6.77999973  55.45000076
H     5.41475201   7.32772064  54.62486267
H    10.43000031   6.77999973  53.01000214
H    11.61000061   8.43999958  57.56000137
H     9.36999989   8.10000038  58.29000092
H     6.90999985   7.78999996  57.74000168
H     7.96000004   6.74000025  53.75000000
H    16.26000023   7.30000019  53.55999756
H     5.26000023   6.90000010  56.35000229
H     5.89999962   5.69000006  55.35999680
S    17.61999893   9.38000011  52.43999863
C    20.26000023   9.78999996  51.53999710
C    18.98999977   9.31999969  51.31999969
C    18.61999893   8.64999962  50.11000061
C    19.55999947   8.47999954  49.09999847
C    20.86000061   9.01000023  49.29999924
C    21.84000015   8.71000004  48.30999756
C    23.18000031   8.92000008  48.54000092
C    23.54999924   9.44999981  49.80999756
C    22.65000153   9.77000046  50.79999924
C    21.25999832   9.59999943  50.56000137
C    17.19000053   8.39999962  50.06999969
C    16.46999931   8.80999947  51.22000122
C    15.08999920   8.94999981  51.25000000
C    24.94999886   9.96999931  50.04000092
H    25.50611305   9.54221916  50.87417221
H    20.46999931  10.11000061  52.56000137
H    19.45999908   7.69000006  48.36000061
H    21.45999908   8.30000019  47.37999725
H    23.85999870   8.85000038  47.70999908
H    22.98999977  10.05000019  51.79999924
H    14.55999947   9.39999962  52.09000015
H    25.52999878  10.00000000  49.10999680
H    24.82000160  11.00999928  50.38000107
S    14.11000061   7.88000011  47.50999832
C    11.35000038   7.92000008  48.04000092
C    12.63000011   8.22000027  48.43999863
C    12.97000027   8.57999992  49.78000259
C    11.96000004   8.78000069  50.70999908
C    10.64000034   8.43000031  50.34000015
C     9.55000019   8.61999989  51.24000168
C     8.27999973   8.14999962  51.00999832
C     8.02999973   7.69000006  49.68999863
C     8.98999977   7.59000015  48.70999908
C    10.32999992   7.92999983  49.02999878
C    14.39000034   8.56000042  50.10000229
C    15.11999989   8.19999981  48.94000244
C    16.51000023   8.13000011  48.88000107
C     6.56000042   7.42999983  49.45999908
H     6.13853788   8.06576538  48.68136597
H    11.23000050   7.49000025  47.04999924
H    12.15999985   9.04999924  51.73999786
H     9.77999973   9.15000057  52.15999985
H     7.49000025   8.34000015  51.72999954
H     8.80999947   7.17000008  47.71999741
H    17.02999878   7.99000025  47.94000244
H     5.95000029   7.60999966  50.34999847
H     6.43000031   6.35999966  49.25000000
