96

S    17.07999992   8.46000004  58.39000320
C    19.76000023   8.73999977  57.70000076
C    18.51000023   8.27000046  57.35000229
C    18.12000084   7.76999998  56.06999969
C    19.11999893   7.72000027  55.11000061
C    20.45000076   8.09000015  55.38999939
C    21.50000000   7.99000025  54.43000031
C    22.80999947   8.14999962  54.79999924
C    23.05999947   8.78000069  56.04999924
C    22.09000015   9.04999924  56.97999954
C    20.75000000   8.65999985  56.68000031
C    16.67000008   7.68000031  55.91999817
C    15.95999908   8.13000011  57.05999756
C    14.59000015   8.38999939  57.04999924
C    24.48999786   9.18000031  56.32999802
H    24.95915413   8.42650986  56.96264648
H    20.10999870   9.19999981  58.61000061
H    18.81000137   7.49000025  54.09999847
H    21.28000069   7.68000031  53.40999985
H    23.61000061   7.86999989  54.12000275
H    22.36000061   9.51000023  57.91999817
H    14.09000015   8.57999992  57.98999786
H    25.12000084   9.26000023  55.43000031
H    24.61999893  10.11999989  56.88000107
S    13.43999958   7.00999975  53.52000427
C    10.75000000   7.23000002  54.10999680
C    12.03999996   7.46000004  54.51000214
C    12.43999958   8.07999992  55.73999786
C    11.36000061   8.21000004  56.59000015
C     9.98999977   8.02999973  56.26999664
C     8.92000008   8.06999969  57.21000290
C     7.60999966   7.75000000  56.91999817
C     7.31999969   7.23000002  55.63000107
C     8.34000015   7.09999990  54.69999695
C     9.65999985   7.57000017  54.94999695
C    13.89000034   8.14999962  55.86000061
C    14.57999992   7.59000015  54.75999832
C    15.95000076   7.36000013  54.75999832
C     5.93999958   6.70000029  55.31999969
H     5.35656404   7.35458708  54.67252731
H    10.52000046   6.72999954  53.16999817
H    11.65999985   8.43000031  57.61000061
H     9.17000008   8.27000046  58.25000000
H     6.84000015   7.96999979  57.63999939
H     8.22000027   6.57000017  53.75999832
H    16.31999969   7.16000032  53.75999832
H     5.46999979   6.56000042  56.30000305
H     6.05999994   5.73999977  54.81999969
S    17.26000023   9.13000011  52.23999786
C    19.95000076   9.15999985  51.52000046
C    18.67000008   8.76999950  51.23000336
C    18.27999878   8.14999962  49.99000168
C    19.29999924   7.86000013  49.09999847
C    20.63999939   8.23000050  49.38999939
C    21.68999863   7.90000010  48.48999786
C    23.01000214   8.05000019  48.85000229
C    23.31999969   8.90999985  49.93999863
C    22.34000015   9.34000015  50.80999756
C    20.98999977   8.93000031  50.59000015
C    16.82999992   8.11999989  49.85000229
C    16.11999893   8.60999966  50.97000122
C    14.73000050   8.71000004  51.00999832
C    24.71999931   9.43000031  50.15999603
H    25.15197945   8.91304111  51.01687622
H    20.09000015   9.64999962  52.49000168
H    19.13999939   7.57000017  48.06999969
H    21.52000046   7.46000004  47.50999832
H    23.81000137   7.76999998  48.16999817
H    22.53000069   9.92999935  51.70000076
H    14.22000027   9.04999924  51.90000153
H    25.25000000   9.21000004  49.22999954
H    24.65999985  10.52000046  50.25000000
S    13.52000046   7.34000015  47.56000137
C    10.80999947   7.59000015  48.15000153
C    12.10999966   7.88000011  48.47999954
C    12.50000000   8.48999977  49.72000122
C    11.54000092   8.73000050  50.66999817
C    10.18000031   8.46000004  50.35999680
C     9.15000057   8.42000008  51.35000229
C     7.86000013   7.96000004  51.20999908
C     7.51999950   7.55999994  49.88999939
C     8.40999985   7.65999985  48.85000229
C     9.78999996   7.90000010  49.09999847
C    13.94000053   8.36000061  49.91000366
C    14.67000008   7.79999971  48.82999802
C    16.04999924   7.64999962  48.77999878
C     6.12999964   7.05999947  49.58000183
H     5.76914024   7.50576782  48.65308762
H    10.65000057   7.05999947  47.22000122
H    11.84000015   9.07999992  51.65999985
H     9.51000023   8.64999962  52.35000229
H     7.17000008   7.83999968  52.04000092
H     8.14999962   7.36999989  47.84000015
H    16.59000015   7.23999977  47.93000031
H     5.46000004   7.17000008  50.45000076
H     6.21000004   6.00000000  49.34999847
