96

S    16.76000023   8.96000004  58.33000183
C    19.45000076   9.23999977  57.64999771
C    18.18000031   8.88000011  57.27000427
C    17.79000092   8.38000011  55.98999786
C    18.81999969   8.23999977  55.06999969
C    20.17000008   8.52000046  55.38000107
C    21.19999886   8.31999969  54.40999985
C    22.50999832   8.47000027  54.79999924
C    22.81999969   9.15000057  56.00000000
C    21.81999969   9.44000053  56.90000153
C    20.46999931   9.04999924  56.68000031
C    16.35000038   8.21000004  55.81999969
C    15.65000057   8.56000042  57.00000000
C    14.27000046   8.71000004  57.04999924
C    24.23000145   9.57999992  56.33999634
H    24.85021400   8.88849735  56.91031265
H    19.64999962   9.77999973  58.57999802
H    18.67000008   7.79999971  54.09000015
H    20.94000053   7.97999954  53.40999985
H    23.28000069   8.32999992  54.03999710
H    21.96000099   9.98000050  57.83000183
H    13.73999977   9.06999969  57.93000031
H    24.76000023   9.86999989  55.41999817
H    24.13999939  10.47999954  56.95000076
S    13.21000004   7.36999989  53.47999954
C    10.48999977   7.09000015  54.22000122
C    11.77000046   7.53000021  54.48999786
C    12.10999966   8.13000011  55.75000000
C    11.11999989   8.43000031  56.65999985
C     9.77000046   8.10000038  56.37000275
C     8.71999931   8.45000076  57.25999832
C     7.46999979   7.90000010  57.09000015
C     7.17000008   7.11000013  55.94999695
C     8.14999962   6.85999966  55.00999832
C     9.48000050   7.31999969  55.20000076
C    13.55000019   8.30000019  55.93000031
C    14.28999996   7.88000011  54.79999924
C    15.67999935   7.82000017  54.65999985
C     5.75999975   6.65000010  55.63000107
H     5.41182137   7.12608099  54.71336746
H    10.22999954   6.71000004  53.23999786
H    11.36000061   8.93000031  57.58999634
H     8.97000027   8.78999996  58.26000214
H     6.65000010   8.14000034  57.76000214
H     7.95000029   6.30000019  54.09999847
H    16.18000031   7.44999981  53.76999664
H     5.09000015   6.96000004  56.43000031
H     5.68000031   5.55999994  55.68999863
S    13.63999939   5.13000011  50.68000031
C    11.00999928   4.39000034  51.29000092
C    12.34000015   4.33999968  51.59999847
C    12.82999992   3.78999996  52.81999969
C    11.87999916   3.19000006  53.63999939
C    10.48999977   3.30999994  53.44999695
C     9.52000046   2.94000006  54.43000031
C     8.18000031   3.12999988  54.15000153
C     7.76000023   3.76999998  52.95999908
C     8.67999935   4.23999977  52.04999924
C    10.05000019   3.93000007  52.22999954
C    14.19000053   4.21000004  53.15000153
C    14.77000046   4.84000015  52.02000046
C    16.11999893   5.17000008  52.02999878
C     6.28999996   3.82999992  52.60000229
H     6.03492546   2.93015504  52.04025650
H    10.67999935   4.84000015  50.34999847
H    12.20999908   2.91000009  54.64000320
H     9.81999969   2.72000027  55.45000076
H     7.44000006   2.92000008  54.91000366
H     8.47999954   4.69999981  51.07999802
H    16.46000099   5.78000021  51.18999863
H     5.66999960   3.97000027  53.48999786
H     6.06999969   4.65999985  51.91999817
S    17.53999901   3.65999985  55.38999939
C    20.17000008   4.07000017  54.68000031
C    18.85000038   4.42999983  54.48999786
C    18.35000038   5.00999975  53.27999878
C    19.26000023   5.45000029  52.34000397
C    20.63999939   5.36999989  52.64999771
C    21.60000038   5.97000027  51.77999878
C    22.95999908   5.78000021  51.90999985
C    23.40999985   5.05999994  53.04000092
C    22.53000069   4.46999979  53.92000198
C    21.11999893   4.61999989  53.77999878
C    16.90999985   4.84000015  53.13000107
C    16.32999992   4.05000019  54.15000153
C    14.96000099   3.78999996  54.23999786
C    24.86999893   5.18000031  53.43999863
H    25.08344650   4.77444983  54.42897034
H    20.51000214   3.63999987  55.61000061
H    18.92000008   5.91000032  51.42000198
H    21.25000000   6.67000008  51.03000259
H    23.62999916   6.32999992  51.25000000
H    22.96999931   4.18000031  54.86999893
H    14.45000076   3.32999992  55.07999802
H    25.23999977   6.21000004  53.48999786
H    25.39999962   4.61999989  52.64999771
