96

S    16.65999985   8.89999962  58.20000076
C    19.37999916   9.00000000  57.52999878
C    18.07999992   8.71000004  57.15999985
C    17.71000099   8.27000046  55.84999847
C    18.71000099   8.03999996  54.93000031
C    20.06999969   8.28999996  55.20999908
C    21.17000198   8.01000023  54.34999847
C    22.46000099   8.40999985  54.62999725
C    22.65000153   9.23999977  55.77000046
C    21.67000008   9.31999969  56.72999954
C    20.35000038   8.82999992  56.52000046
C    16.26000023   8.14999962  55.68999863
C    15.57000065   8.64000034  56.83000183
C    14.19000053   8.71999931  56.90000153
C    24.04000092   9.68999958  56.14999771
H    24.48027229   9.07929993  56.93822861
H    19.63000107   9.52000046  58.44999695
H    18.43000031   7.64999962  53.95000076
H    20.92000008   7.36999989  53.52000427
H    23.22999954   8.14999962  53.90999603
H    21.86000061   9.59000015  57.76000214
H    13.75000000   8.97999954  57.85999680
H    24.73999977   9.73999977  55.31000137
H    24.03000069  10.70000076  56.59000015
S    13.07000065   7.49000025  53.29999924
C    10.39999962   7.13999987  54.02000046
C    11.61000061   7.73000002  54.29000092
C    11.97000027   8.19000053  55.59999847
C    10.97000027   8.30000019  56.53999710
C     9.61999989   8.00000000  56.23000336
C     8.60000038   8.14999962  57.22000122
C     7.31999969   7.81000042  56.86000061
C     7.02000046   7.30000019  55.56999969
C     8.01999950   7.02000046  54.65999985
C     9.35999966   7.39000034  54.94999695
C    13.40000057   8.36999989  55.79000092
C    14.11999893   7.92000008  54.65999985
C    15.48999977   7.68000031  54.61999893
C     5.63000011   6.80999994  55.21999741
H     5.16617489   7.32377577  54.37797546
H    10.07999992   6.75000000  53.06000137
H    11.14999962   8.59000015  57.56999969
H     8.80000019   8.60999966  58.18000031
H     6.42000008   8.03999996  57.42000198
H     7.73000002   6.69000053  53.66000366
H    15.95000076   7.25000000  53.73000336
H     5.00999975   7.03000021  56.10000229
H     5.58000040   5.73999977  55.00999832
S    14.11999893   5.45000029  50.47000122
C    11.42000008   4.88000011  51.04000092
C    12.75000000   4.80999994  51.39999771
C    13.14000034   4.19999981  52.63000107
C    12.18999958   3.67000008  53.48999786
C    10.84000015   3.81999993  53.11000061
C     9.78999996   3.31999993  53.94000244
C     8.46000004   3.47000003  53.62999725
C     8.07999992   3.98999977  52.36000061
C     9.02000046   4.51000023  51.50000000
C    10.38000011   4.42999983  51.88999939
C    14.57999992   4.30999994  52.81999969
C    15.21999931   5.05999994  51.79999924
C    16.56999969   5.36999989  51.77999878
C     6.61000013   4.23999977  52.11000061
H     6.27684593   3.91393375  51.12471390
H    11.10999966   5.51999998  50.20999908
H    12.48999977   3.05999994  54.34000015
H    10.03000069   2.86000013  54.88999939
H     7.75000000   3.24000001  54.41999817
H     8.73999977   5.13999987  50.65999985
H    17.04000092   5.82000017  50.90000153
H     6.01999998   3.71000004  52.87000275
H     6.37000036   5.28999996  52.29000092
S    17.87999916   3.68999982  55.15999603
C    20.55999947   4.07000017  54.36999893
C    19.22000122   4.30999994  54.18000031
C    18.77000046   4.94000006  52.97000122
C    19.67000008   5.36999989  52.02000046
C    21.05999947   5.22000027  52.25000000
C    22.01000023   5.75999975  51.33999634
C    23.35000038   5.78999996  51.65000153
C    23.78999901   5.25000000  52.88999939
C    22.88999939   4.78999996  53.81999969
C    21.51000023   4.67000008  53.50999832
C    17.32999992   4.82999992  52.83000183
C    16.72999954   4.07999992  53.87000275
C    15.36000061   3.79999995  53.86000061
C    25.22000122   5.55999994  53.29000092
H    25.59782410   5.01108551  54.15258026
H    20.95999908   3.54999995  55.22999573
H    19.40000153   5.69999981  51.02000427
H    21.65999985   6.50000000  50.63000107
H    24.04000092   6.39999962  51.06999969
H    23.15999985   4.59999990  54.86000061
H    14.88000011   3.30000019  54.69999695
H    25.30999947   6.63999987  53.44999695
H    25.85000038   5.38999987  52.39999771
