96

S    17.17000008   9.15999985  58.18000031
C    19.88000107   9.17000008  57.50000000
C    18.60000038   8.73999977  57.22000122
C    18.31999969   8.10999966  55.96000290
C    19.37000084   7.86000013  55.11000061
C    20.72000122   8.22000027  55.38000107
C    21.78999901   7.94000053  54.48999786
C    23.08000183   8.27000046  54.80999756
C    23.36999893   8.82000065  56.09000397
C    22.30999947   9.30000019  56.83000183
C    20.95999908   8.93999958  56.59999847
C    16.87999916   7.94000053  55.79000092
C    16.15999985   8.50000000  56.86999893
C    14.77000046   8.60000038  56.95999908
C    24.73999977   9.34000015  56.45000076
H    25.23628044   8.60266781  57.08098984
H    20.06999969   9.71000004  58.41999817
H    19.19000053   7.28999996  54.20000076
H    21.50000000   7.42999983  53.57999802
H    23.90999985   8.10999966  54.13000107
H    22.43999863   9.81000042  57.77999878
H    14.28999996   8.84000015  57.90000153
H    25.26000023   9.71000004  55.56000137
H    24.59000015  10.24000072  57.05999756
S    13.66000080   7.49000025  53.34999847
C    10.93999958   7.36000013  54.10999680
C    12.23000050   7.76000023  54.36999893
C    12.64000034   8.23000050  55.65999985
C    11.64000034   8.34999943  56.60999680
C    10.26999950   8.13000011  56.31000137
C     9.25000000   8.27000046  57.29000092
C     7.99000025   7.83999968  56.95000076
C     7.59000015   7.28999996  55.70000076
C     8.56999969   7.09999990  54.75000000
C     9.89999962   7.53000021  55.06000137
C    14.09000015   8.30000019  55.77999878
C    14.81999969   7.82000017  54.65999985
C    16.18000031   7.53000021  54.65000153
C     6.11999989   6.98999977  55.54000092
H     5.62121201   7.77380991  54.96995544
H    10.60999966   6.88000011  53.20000076
H    11.84000015   8.69000053  57.62000275
H     9.59000015   8.48999977  58.29999924
H     7.36999989   7.83999968  57.84000015
H     8.34999943   6.67999983  53.77999878
H    16.76000023   7.02000046  53.88999939
H     5.73000002   6.75000000  56.52999878
H     6.14000034   6.05000019  54.98000336
S    17.22999954   9.30999947  52.12999725
C    19.92000008   9.26999950  51.53999710
C    18.64999962   8.92000008  51.13999939
C    18.36000061   8.36999989  49.85000229
C    19.37999916   8.19999981  48.93000031
C    20.71000099   8.56000042  49.26000214
C    21.84000015   8.18000031  48.48999786
C    23.13999939   8.32999992  48.89999771
C    23.36999893   9.17000008  50.01999664
C    22.29000092   9.52000046  50.79999924
C    20.95000076   9.11000061  50.56999969
C    16.92000008   8.38000011  49.64000320
C    16.18999863   8.78000069  50.79000092
C    14.81999969   9.00000000  50.75000000
C    24.79000092   9.61999989  50.31000137
H    25.26719856   9.09294415  51.13619232
H    20.23999977   9.55000019  52.54000092
H    19.18000031   7.88999987  47.90999985
H    21.68000031   7.69000006  47.52999878
H    23.94000053   7.96000004  48.27000046
H    22.46000099  10.19000053  51.63999939
H    14.34999943   9.44000053  51.62000275
H    25.32999992   9.48999977  49.36999893
H    24.82000160  10.71000004  50.45000076
S    13.68000031   7.50999975  47.27000427
C    10.95999908   7.57000017  47.98999786
C    12.27000046   7.88000011  48.27999878
C    12.63000011   8.48999977  49.52999878
C    11.67000008   8.71000004  50.50000000
C    10.36000061   8.19000053  50.37000275
C     9.32999992   8.30999947  51.35000229
C     8.01999950   7.96000004  51.11000061
C     7.78999996   7.32999992  49.86000061
C     8.69000053   7.34000015  48.81999969
C    10.03999901   7.72000027  49.05000305
C    14.07999992   8.48999977  49.68000031
C    14.80000019   8.09000015  48.52000427
C    16.18999863   8.02999973  48.50000000
C     6.37000036   6.91999960  49.52999878
H     5.84995747   7.62526369  48.88172531
H    10.62999916   7.26999998  46.98999786
H    11.94000053   9.26999950  51.38999939
H     9.61000061   8.78000069  52.29000092
H     7.25000000   8.14000034  51.84999847
H     8.43999958   7.07999992  47.78999710
H    16.61999893   7.64999962  47.57999802
H     5.79999971   6.80000019  50.45999908
H     6.39999962   5.93999958  49.02999878
