96

S    16.61999893   9.02000046  58.18999863
C    19.37999916   8.89000034  57.60000229
C    18.07999992   8.59000015  57.28000259
C    17.68000031   7.95000029  56.04999924
C    18.67000008   7.77999973  55.10000229
C    20.02000046   8.02999973  55.43000031
C    21.11999893   7.81000042  54.54000092
C    22.43000031   8.13000011  54.80999756
C    22.72000122   8.76000023  56.04999924
C    21.73000145   9.10000038  56.93000031
C    20.42000008   8.57999992  56.70000076
C    16.26000023   8.11999989  55.79000092
C    15.48999977   8.59000015  56.88999939
C    14.09999943   8.59000015  56.90000153
C    24.14999962   9.11999989  56.38999939
H    24.56953049   8.84268379  57.35705185
H    19.59000015   9.63000011  58.36999893
H    18.29000092   7.42999983  54.13999939
H    20.95000076   7.55999994  53.50000000
H    23.29999924   8.01999950  54.16999817
H    21.94999886   9.71000004  57.80000305
H    13.60999966   8.97999954  57.77999878
H    24.87999916   8.65999985  55.70999908
H    24.28999901  10.19999981  56.27999878
S    13.10999966   7.03000021  53.41999817
C    10.34000015   7.09999990  53.96999741
C    11.63000011   7.39000034  54.34000015
C    11.97000027   7.90000010  55.63000107
C    10.92000008   8.19000053  56.47999573
C     9.59000015   7.77999973  56.20999908
C     8.55000019   7.94000053  57.16999817
C     7.23000002   7.62000036  56.91999817
C     6.96000004   7.03000021  55.65999985
C     7.94000053   6.84000015  54.71000290
C     9.27999973   7.28999996  54.89999771
C    13.40000057   8.11999989  55.77999878
C    14.18000031   7.71000004  54.65999985
C    15.57000065   7.69000006  54.65000153
C     5.52999973   6.63000011  55.38999939
H     5.20393372   7.21833706  54.53230286
H    10.01999950   6.50000000  53.13000107
H    11.06999969   8.76000023  57.38999939
H     8.82000065   8.30999947  58.15999985
H     6.44000006   7.57999992  57.65999603
H     7.63999987   6.32999992  53.80000305
H    16.06999969   7.25000000  53.80000305
H     4.77999973   6.80999994  56.17000198
H     5.45000029   5.59999990  55.02999878
S    13.55999947   5.09000015  50.26000214
C    10.85000038   4.65000010  50.93000031
C    12.18000031   4.55999994  51.25000000
C    12.61000061   4.00000000  52.49000168
C    11.64000034   3.54999995  53.36999893
C    10.25000000   3.67000008  53.09999847
C     9.22999954   3.33999991  54.02999878
C     7.90000010   3.45999980  53.68999863
C     7.51999950   4.01999998  52.43999863
C     8.47000027   4.53000021  51.59000015
C     9.84000015   4.25000000  51.84999847
C    14.06000042   4.02999973  52.63999939
C    14.68999958   4.69000006  51.56000137
C    16.03000069   5.07000017  51.53999710
C     6.03999996   4.23999977  52.21000290
H     5.68454123   3.58595610  51.41377640
H    10.47000027   5.07000017  50.00000000
H    11.97000027   3.21000004  54.34000015
H     9.44000053   3.08999991  55.06999969
H     7.17999983   3.25999999  54.47000122
H     8.10999966   5.00000000  50.66999817
H    16.45000076   5.75000000  50.79999924
H     5.51000023   4.15000010  53.15999985
H     5.97000027   5.31000042  51.98999786
S    17.40999985   3.58000016  54.97000122
C    20.06999969   4.02999973  54.25000000
C    18.72999954   4.19999981  53.96999741
C    18.25000000   4.73000002  52.72999573
C    19.18000031   5.15999985  51.79000092
C    20.55999947   5.05999994  52.05999756
C    21.52000046   5.69999981  51.22000122
C    22.86000061   5.73000002  51.52999878
C    23.29999924   5.07000017  52.70000076
C    22.40999985   4.48999977  53.57999802
C    21.02000046   4.44999981  53.27999878
C    16.80999947   4.61999989  52.61000061
C    16.21000099   4.00000000  53.74000168
C    14.84000015   3.78999996  53.77999878
C    24.77999878   4.88000011  52.90999985
H    25.11315346   5.29821491  53.85984421
H    20.45000076   3.58000016  55.15999603
H    18.86999893   5.77000046  50.93999863
H    21.21000099   6.15999985  50.28999710
H    23.55999947   6.05000019  50.77000046
H    22.73999977   4.07000017  54.52999878
H    14.32999992   3.49000001  54.68999863
H    25.20999908   5.31000042  52.00000000
H    24.92000198   3.78999996  52.88999939
