96

S    16.52000046   9.22999954  58.01000214
C    19.25000000   9.01000023  57.52999878
C    17.95999908   8.73000050  57.11999893
C    17.60000038   8.36000061  55.79000092
C    18.61999893   8.10000038  54.87999725
C    19.93999863   8.43000031  55.26000214
C    21.04000092   8.43999958  54.34999847
C    22.32999992   8.71999931  54.72999954
C    22.63000107   9.15999985  56.04999924
C    21.61000061   9.22999954  56.97000122
C    20.29999924   8.78999996  56.59999847
C    16.17000008   8.38999939  55.54999924
C    15.43000031   8.90999985  56.65000153
C    14.04999924   9.06000042  56.59999847
C    24.03000069   9.67000008  56.32999802
H    24.55638123   8.93733501  56.94173813
H    19.44000053   9.38000011  58.53000259
H    18.45999908   7.79999971  53.85000229
H    20.79000092   8.10000038  53.34999847
H    23.19000053   8.53999996  54.09000015
H    21.71999931   9.61000061  57.97999954
H    13.55000019   9.46000004  57.47000122
H    24.57999992   9.77999973  55.38000107
H    23.95999908  10.70000076  56.70000076
S    13.00000000   7.23999977  53.23999786
C    10.29000092   7.28999996  53.89999771
C    11.59000015   7.55999994  54.27000046
C    11.90000057   8.10999966  55.56000137
C    10.88000107   8.42000008  56.43000031
C     9.55999947   7.99000025  56.14999771
C     8.43999958   8.07999992  57.01000214
C     7.17999983   7.59000015  56.72000122
C     6.88000011   7.25000000  55.38000107
C     7.90999985   7.26000023  54.45999908
C     9.26000023   7.40999985  54.86000061
C    13.34000015   8.36000061  55.61999893
C    14.06999969   7.77999973  54.54999924
C    15.46000004   7.88000011  54.45000076
C     5.51999998   6.67999983  55.05000305
H     5.11492443   7.17746115  54.16878510
H    10.11000061   6.98000002  52.87000275
H    11.13999939   8.78999996  57.42000198
H     8.76999950   8.43999958  57.97999954
H     6.48999977   7.42000008  57.54000092
H     7.72000027   7.16000032  53.39000320
H    15.92000008   7.50999975  53.54999924
H     4.90000010   6.72999954  55.94999695
H     5.55000019   5.59999990  54.84000397
S    17.39999962   9.48999977  52.15000153
C    20.06999969   9.77000046  51.40999603
C    18.81999969   9.30000019  51.10000229
C    18.45999908   8.69999981  49.85000229
C    19.47000122   8.52000046  48.92000198
C    20.76000023   9.06000042  49.12000275
C    21.86000061   8.90999985  48.22999954
C    23.13999939   9.21000004  48.63999939
C    23.40999985   9.82999992  49.87999725
C    22.34999847  10.15999985  50.68000031
C    21.04000092   9.68000031  50.38999939
C    17.02999878   8.46000004  49.72000122
C    16.32999992   8.80999947  50.90000153
C    14.94999981   8.98999977  50.89000320
C    24.84000015  10.18000031  50.25000000
H    25.16657639   9.58364201  51.10194016
H    20.20000076  10.17000008  52.41000366
H    19.31999969   7.95000029  48.01000214
H    21.75000000   8.39999962  47.27000427
H    23.97000122   8.98999977  47.97000122
H    22.60999870  10.51000023  51.68000031
H    14.46000004   9.23999977  51.83000183
H    25.56999969   9.98999977  49.45999908
H    24.76000023  11.23000050  50.54999924
S    13.76999950   7.92000008  47.30999756
C    11.06999969   7.90999985  48.00000000
C    12.35999966   8.23000050  48.34000015
C    12.74000072   8.75000000  49.61999893
C    11.72000027   8.94999981  50.52999878
C    10.36999893   8.86999989  50.12000275
C     9.38000011   8.93999958  51.13999939
C     8.09000015   8.55000019  50.86999893
C     7.72000027   8.01999950  49.59999847
C     8.65999985   7.95000029  48.60000229
C    10.00000000   8.36000061  48.82999802
C    14.19000053   8.76999950  49.73999786
C    14.92000008   8.30000019  48.61000061
C    16.28999901   8.10999966  48.57999802
C     6.32999992   7.49000025  49.34999847
H     5.84087038   8.06419659  48.56313705
H    10.85999966   7.23000002  47.18000031
H    11.97999954   9.18000031  51.56000137
H     9.72000027   9.06999969  52.15999985
H     7.36999989   8.32999992  51.65000153
H     8.46000004   7.39000034  47.69000244
H    16.69000053   7.76999998  47.62000275
H     5.82000017   7.44999981  50.31999969
H     6.47000027   6.50000000  48.89999771
