96

S    17.14999962   9.26999950  58.11999893
C    19.78999901   9.50000000  57.27000427
C    18.52000046   9.04999924  57.02000046
C    18.23999977   8.27000046  55.84999847
C    19.25000000   8.00000000  54.93999863
C    20.58000183   8.43000031  55.18000031
C    21.64999962   8.01000023  54.34999847
C    22.92000008   8.46000004  54.64000320
C    23.25000000   9.06999969  55.87999725
C    22.20999908   9.52000046  56.65999985
C    20.85000038   9.19000053  56.37000275
C    16.80999947   8.01999950  55.77999878
C    16.11999893   8.43000031  56.95000076
C    14.73999977   8.56000042  57.02999878
C    24.65999985   9.44999981  56.25999832
H    25.11626816   8.79411221  57.00143814
H    19.89999962  10.01999950  58.20999908
H    19.02000046   7.51999950  53.99000168
H    21.51000023   7.40999985  53.46000290
H    23.68000031   8.13000011  53.93000031
H    22.34000015  10.06000042  57.58999634
H    14.14999962   8.80000019  57.90999985
H    25.30999947   9.44000053  55.38000107
H    24.75000000  10.47000027  56.65000153
S    13.60999966   7.30000019  53.47000122
C    10.82999992   7.57000017  54.09000015
C    12.15999985   7.73000002  54.40999985
C    12.50000000   8.14000034  55.72999954
C    11.54000092   8.36999989  56.70000076
C    10.18000031   8.19999981  56.36000061
C     9.19999981   8.45000076  57.36000061
C     7.86999989   8.19999981  57.09999847
C     7.46999979   7.73999977  55.80999756
C     8.42000008   7.53000021  54.84000397
C     9.80000019   7.85000038  55.01999664
C    13.94999981   8.22000027  55.93000031
C    14.65999985   7.62000036  54.86000061
C    16.03999901   7.53000021  54.72000122
C     6.02999973   7.31999969  55.63999939
H     5.65209484   7.83338070  54.75584412
H    10.57999992   7.09000015  53.15000153
H    11.94000053   8.64000034  57.67000198
H     9.65999985   8.82999992  58.27000046
H     7.17999983   8.18000031  57.93000031
H     8.18000031   7.07999992  53.88000107
H    16.46999931   7.36000013  53.74000168
H     5.45000029   7.50999975  56.55000305
H     6.09000015   6.23000050  55.47999954
S    17.38999939   9.32999992  52.18000031
C    20.13000107   9.39000034  51.45000076
C    18.81000137   9.19999981  51.11999893
C    18.52000046   8.64000034  49.82999802
C    19.52999878   8.36999989  48.92000198
C    20.88999939   8.56999969  49.23999786
C    22.01999855   8.36000061  48.39000320
C    23.29000092   8.67999935  48.80000305
C    23.52999878   9.30999947  50.05000305
C    22.50000000   9.43000031  50.96000290
C    21.18000031   9.13000011  50.52999878
C    17.09000015   8.67999935  49.56999969
C    16.38000107   8.98999977  50.76000214
C    14.98999977   9.00000000  50.79999924
C    24.93999863   9.72000027  50.40999985
H    25.44493484   9.01593781  51.07138824
H    20.29999924   9.70000076  52.48000336
H    19.27999878   8.18000031  47.88000107
H    21.77999878   7.95000029  47.41000366
H    24.05999947   8.47999954  48.04999924
H    22.72000122   9.85000038  51.93000031
H    14.39000034   9.23999977  51.68000031
H    25.38999939   9.90999985  49.43000031
H    24.86999893  10.73999977  50.79999924
S    13.92000008   7.68000031  47.18000031
C    11.19999981   7.62000036  47.84000015
C    12.48999977   7.96000004  48.18999863
C    12.86999893   8.53999996  49.43999863
C    11.80999947   8.80999947  50.28999710
C    10.48999977   8.36999989  50.06000137
C     9.48000050   8.60999966  51.03000259
C     8.18000031   8.25000000  50.75000000
C     7.79999971   7.81000042  49.45000076
C     8.78000069   7.57999992  48.52000427
C    10.15999985   7.82000017  48.76999664
C    14.30999947   8.64999962  49.62999725
C    15.01000023   8.19000053  48.48999786
C    16.39999962   8.23999977  48.43999863
C     6.43000031   7.25000000  49.18000031
H     5.92541027   7.96779680  48.53327179
H    11.03000069   7.23000002  46.84000015
H    12.02999973   9.30999947  51.23000336
H     9.85000038   9.10000038  51.93000031
H     7.40000010   8.30000019  51.50000000
H     8.43999958   7.17999983  47.56000137
H    17.01000023   7.97999954  47.57999802
H     5.91000032   7.14999962  50.14999771
H     6.40999985   6.26999950  48.68999863
