96

S    15.36999893  33.09999847  60.25000000
C    18.02000046  33.39999771  59.47999954
C    16.77999878  32.90000153  59.19000244
C    16.43000031  32.40000153  57.88999939
C    17.39999962  32.40000153  56.90999985
C    18.71999931  32.85000229  57.15000153
C    19.75000000  32.65999985  56.18999863
C    21.02999878  33.01000214  56.56000137
C    21.31999969  33.61000061  57.81999969
C    20.38999939  33.52000046  58.82999802
C    19.02000046  33.31999969  58.47999954
C    14.98999977  32.19000244  57.77000046
C    14.29999924  32.62000275  58.93000031
C    12.90999985  32.65000153  59.06000137
C    22.67000008  34.20999908  58.11999893
H    23.23284721  33.45478821  58.66859818
H    18.38000107  33.75000000  60.44000244
H    17.15999985  32.15999985  55.87999725
H    19.47000122  32.25000000  55.21999741
H    21.87999916  32.84000015  55.90999985
H    20.58000183  33.68999863  59.87999725
H    12.46999931  32.70000076  60.05000305
H    23.16999817  34.50999832  57.18999863
H    22.59000015  35.13999939  58.69999695
S    11.71000004  31.15999985  55.61999893
C     9.10000038  30.76000023  56.47999573
C    10.34999943  31.28000069  56.73999786
C    10.70000076  32.00999832  57.91999817
C     9.73999977  32.06999969  58.92000198
C     8.39999962  31.67000008  58.68000031
C     7.34000015  31.86000061  59.61000061
C     6.10000038  31.28999901  59.45999908
C     5.84999990  30.61000061  58.23999786
C     6.80999994  30.42000008  57.27000427
C     8.10999966  30.96999931  57.45999908
C    12.10999966  32.36999893  57.95000076
C    12.79999924  31.94000053  56.77999878
C    14.18000031  31.84999847  56.68000031
C     4.48999977  30.00000000  58.01000214
H     4.02975082  30.45316696  57.13198853
H     8.80000019  30.43999863  55.48999786
H     9.92999935  32.43999863  59.92000198
H     7.68000031  32.40999985  60.47999954
H     5.36000013  31.35999870  60.26000214
H     6.63000011  29.76000023  56.42000198
H    14.65999985  31.45000076  55.79000092
H     3.86999989  30.10999870  58.90999603
H     4.59000015  28.95999908  57.70000076
S    12.10000038  29.09000015  52.78999710
C     9.52000046  28.26000023  53.54000092
C    10.88000107  28.26000023  53.77999878
C    11.51000023  27.79000092  54.97000122
C    10.67000008  27.29000092  55.94999695
C     9.27999973  27.23999977  55.72000122
C     8.34000015  26.67000008  56.63000107
C     6.97000027  26.63000107  56.50000000
C     6.38999987  27.17000008  55.31999969
C     7.23999977  27.60999870  54.33000183
C     8.64999962  27.72000122  54.52000046
C    12.93000031  28.05999947  55.08999634
C    13.40999985  28.69999886  53.92000198
C    14.68999958  29.23999977  53.87000275
C     4.90000010  27.04999924  55.08999634
H     4.60635424  27.33648300  54.08014679
H     9.13000011  28.75999832  52.64999771
H    11.03000069  26.87000084  56.88999939
H     8.65999985  26.11000061  57.50999832
H     6.40999985  26.19999886  57.32999802
H     6.72999954  28.01000214  53.46000290
H    15.01000023  29.73999977  52.95999908
H     4.61999989  26.02000046  55.37000275
H     4.33999968  27.70999908  55.76000214
S    16.52000046  28.08000183  57.23999786
C    19.03000069  28.81999969  56.20999908
C    17.65999985  28.85999870  56.11999893
C    16.95999908  29.37999916  54.99000168
C    17.69000053  29.89999962  53.93000031
C    19.10000038  29.80999947  53.89999771
C    19.90999985  30.36999893  52.87000275
C    21.27000046  30.43999863  52.98999786
C    21.93000031  30.09000015  54.19000244
C    21.14999962  29.59000015  55.20000076
C    19.75000000  29.34999847  55.10000229
C    15.54999924  29.04000092  54.95999908
C    15.14999962  28.38999939  56.14999771
C    13.83999920  27.90999985  56.14999771
C    23.40999985  30.23999977  54.50000000
H    23.72245216  29.92044830  55.49416351
H    19.56999969  28.29000092  56.98999786
H    17.22999954  30.38999939  53.08000183
H    19.45999908  30.95000076  52.04999924
H    21.81999969  30.98999977  52.22999954
H    21.60000038  29.18999863  56.11000061
H    13.48999977  27.34000015  57.00000000
H    23.67000198  31.30000114  54.36999893
H    23.97000122  29.73999977  53.70999908
