96

S    15.39000034  33.15999985  60.31999969
C    18.00000000  33.75999832  59.48999786
C    16.75000000  33.27000046  59.19000244
C    16.36000061  32.86000061  57.87000275
C    17.40999985  32.86000061  56.95999908
C    18.70000076  33.34999847  57.25000000
C    19.78000069  33.40999985  56.31999969
C    21.05999947  33.82999802  56.60999680
C    21.37000084  34.34999847  57.90000153
C    20.36999893  34.31999969  58.83999634
C    19.05999947  33.86000061  58.54999924
C    14.93000031  32.62000275  57.75000000
C    14.26000023  32.81999969  58.97999573
C    12.88000011  32.80999756  59.13000107
C    22.78000069  34.68000031  58.34000015
H    23.25059891  33.98123169  59.03163528
H    18.29000092  34.15999985  60.45999908
H    17.21999931  32.43999863  55.97999954
H    19.45999908  32.93000031  55.40000153
H    21.81999969  33.88999939  55.84999847
H    20.55000114  34.47999954  59.89999771
H    12.43000031  32.84000015  60.11000061
H    23.38000107  34.66999817  57.42000198
H    22.93000031  35.65999985  58.81000137
S    11.72000027  31.51000023  55.56999969
C     9.25000000  30.58000183  56.50000000
C    10.44000053  31.21999931  56.76000214
C    10.77000046  31.81999969  58.02000046
C     9.76000023  31.76000214  58.95999908
C     8.52999973  31.09999847  58.74000168
C     7.42000008  31.04999924  59.62999725
C     6.21000004  30.46999931  59.34999847
C     5.95000029  29.89000130  58.08000183
C     6.97000027  29.89000130  57.15999985
C     8.22000027  30.48000145  57.47000122
C    12.10999966  32.38999939  58.02999878
C    12.77999973  32.23999786  56.79000092
C    14.15999985  32.22999954  56.65000153
C     4.59000015  29.31999969  57.76000214
H     3.91418362  29.91756439  57.14820862
H     8.97999954  30.22999954  55.51000214
H     9.94000053  32.33000183  59.86999893
H     7.46999979  31.71999931  60.47999954
H     5.40999985  30.45000076  60.08999634
H     6.75000000  29.46000099  56.18000031
H    14.72000027  31.97999954  55.75000000
H     4.15000010  29.00000000  58.70999908
H     4.65999985  28.39999962  57.15999985
S    15.71000004  33.75999832  53.99000168
C    18.38000107  34.05999756  53.06999969
C    17.07999992  33.65000153  52.88000107
C    16.69000053  33.15999985  51.59000015
C    17.67000008  33.00000000  50.61999893
C    19.01000023  33.45000076  50.75000000
C    20.02000046  33.34999847  49.75000000
C    21.27000046  33.82999802  50.02999878
C    21.57999992  34.50999832  51.24000168
C    20.62999916  34.57999802  52.22999954
C    19.31999969  34.05999756  52.01000214
C    15.26999950  32.88000107  51.52000046
C    14.60000038  33.25000000  52.70999908
C    13.22000027  33.16999817  52.84999847
C    22.82999992  35.34000015  51.39999771
H    23.46348190  34.82040405  52.11889648
H    18.72999954  34.61000061  53.94000244
H    17.40999985  32.44999695  49.72000122
H    19.84000015  32.95999908  48.75000000
H    21.93000031  33.97000122  49.18000031
H    20.73999786  35.09999847  53.18000031
H    12.72999954  33.48999786  53.76999664
H    23.31000137  35.27000046  50.41999817
H    22.65999985  36.36000061  51.77999878
S    11.92000008  31.83000183  49.38999939
C     9.27999973  31.48999977  50.27999878
C    10.55999947  31.93000031  50.52999878
C    10.98000050  32.44999695  51.79999924
C    10.08999920  32.52000046  52.85999680
C     8.84000015  31.87999916  52.70999908
C     7.94000053  31.87000084  53.81000137
C     6.75000000  31.21999931  53.61000061
C     6.28999996  30.72999954  52.35000229
C     7.14999962  30.79999924  51.27999878
C     8.42000008  31.42999840  51.40999603
C    12.41000080  32.75000000  51.79000092
C    13.09000015  32.40999985  50.59000015
C    14.46000004  32.50999832  50.43000031
C     4.84000015  30.35000038  52.11999893
H     4.40021229  30.95293427  51.32554626
H     8.97000027  31.11000061  49.31999969
H    10.36000061  32.97999954  53.81000137
H     8.27999973  32.44999695  54.66999817
H     6.06999969  31.27000046  54.45999908
H     6.84000015  30.46999931  50.28999710
H    15.01999950  32.29999924  49.52999878
H     4.32999992  30.48999977  53.08000183
H     4.69999981  29.30000114  51.84999847
