96

S    15.44999981  33.31999969  60.08999634
C    18.04000092  33.91999817  59.15999985
C    16.82999992  33.29999924  58.96999741
C    16.47999954  32.70000076  57.71999741
C    17.39999962  32.73999786  56.69000244
C    18.64999962  33.38999939  56.77999878
C    19.61000061  33.32999802  55.72999954
C    20.84000015  33.88999939  56.00999832
C    21.14999962  34.47000122  57.27000427
C    20.17999840  34.63000107  58.22999954
C    18.90999985  34.01000214  58.04000092
C    15.06999969  32.30999756  57.67000198
C    14.37999916  32.61000061  58.87000275
C    13.00000000  32.56999969  59.05000305
C    22.56999969  34.80999756  57.65999603
H    23.15807533  34.05187988  58.17722321
H    18.27000046  34.43000031  60.08999634
H    16.97999954  32.38999939  55.73999786
H    19.36000061  32.65000153  54.92000198
H    21.68000031  33.68999863  55.35999680
H    20.40999985  35.04000092  59.20999908
H    12.53999901  32.92000198  59.95999908
H    23.15000153  35.09000015  56.77000046
H    22.56000137  35.75000000  58.22999954
S    11.80999947  31.19999886  55.54999924
C     9.19000053  30.81000137  56.42000198
C    10.43000031  31.35000038  56.65999985
C    10.76000023  32.00999832  57.88999939
C     9.81000042  32.11000061  58.88999939
C     8.52999973  31.55999947  58.68000031
C     7.57999992  31.51000023  59.73999786
C     6.35999966  30.92000008  59.50000000
C     6.00000000  30.36000061  58.23999786
C     6.90999985  30.36999893  57.21000290
C     8.22000027  30.86999893  57.44999695
C    12.20000076  32.22999954  57.95000076
C    12.90999985  31.84999847  56.79000092
C    14.28999996  31.84000015  56.60999680
C     4.59999990  29.84999847  58.02000046
H     4.01125240  30.43165207  57.31066513
H     8.90999985  30.34000015  55.47999954
H    10.06000042  32.50999832  59.87999725
H     7.88999987  31.94999886  60.68000031
H     5.60999966  30.69999886  60.26000214
H     6.70000029  30.03999901  56.18999863
H    14.72000027  31.70999908  55.61999893
H     4.05999994  29.67000008  58.95000076
H     4.57999992  28.82999802  57.62000275
S    15.08999920  33.61000061  53.74000168
C    17.70000076  34.11000061  52.81000137
C    16.46000099  33.54000092  52.61000061
C    16.03999901  32.97000122  51.37000275
C    17.01000023  32.79000092  50.40000153
C    18.35000038  33.18000031  50.59999847
C    19.40000153  33.13000107  49.64000320
C    20.63999939  33.69999695  49.79000092
C    20.92000008  34.36999893  51.00999832
C    19.95000076  34.52000046  51.97000122
C    18.63999939  33.98999786  51.75000000
C    14.61999989  32.63999939  51.31000137
C    13.97999954  32.88000107  52.55000305
C    12.61000061  32.72000122  52.74000168
C    22.29999924  34.93999863  51.25000000
H    22.71907425  34.42858505  52.11656570
H    17.92000008  34.57999802  53.75999832
H    16.84000015  32.40999985  49.38999939
H    19.07999992  32.72999954  48.68000031
H    21.34000015  33.72999954  48.95999908
H    20.15999985  34.97999954  52.93000031
H    12.23999977  32.83000183  53.75000000
H    22.95999908  34.84999847  50.38000107
H    22.19000053  35.96999741  51.60999680
S    11.30000019  31.67000008  49.16999817
C     8.69000053  31.32999802  50.12000275
C     9.98000050  31.75000000  50.35999680
C    10.38000011  32.20000076  51.65999985
C     9.44999981  32.20999908  52.68000031
C     8.14999962  31.70999908  52.45999908
C     7.25000000  31.57999992  53.55999756
C     5.97000027  31.11999893  53.36999893
C     5.61999989  30.56999969  52.09999847
C     6.50000000  30.52999878  51.04000092
C     7.78999996  31.11999893  51.19999695
C    11.80999947  32.49000168  51.60999680
C    12.46999931  32.15999985  50.40999985
C    13.86000061  32.11000061  50.27000046
C     4.28000021  29.96999931  51.75000000
H     3.73903608  30.64620590  51.08803177
H     8.47999954  31.09999847  49.08000183
H     9.67000008  32.43999863  53.72000122
H     7.50999975  32.06000137  54.50000000
H     5.21000004  31.22999954  54.13999939
H     6.02999973  30.15000153  50.13999939
H    14.26000023  31.73000145  49.33000183
H     3.79999995  29.79999924  52.71999741
H     4.51000023  29.02000046  51.25000000
