96

S    15.15999985  33.02000046  60.34000015
C    17.81999969  33.47999954  59.48999786
C    16.54000092  33.04999924  59.22000122
C    16.17000008  32.56999969  57.91999817
C    17.13000107  32.62000275  56.93000031
C    18.48999977  32.95000076  57.15999985
C    19.51000023  32.93999863  56.17000198
C    20.82999992  33.20999908  56.45000076
C    21.18999863  33.72999954  57.71999741
C    20.17000008  33.80000305  58.64999771
C    18.81999969  33.39999771  58.48999786
C    14.73000050  32.36000061  57.81000137
C    14.04000092  32.76000214  58.99000168
C    12.65999985  32.76000214  59.13000107
C    22.62000084  34.15000153  57.97999954
H    22.90390205  34.08612061  59.03043747
H    18.02999878  33.93000031  60.45999908
H    16.93000031  32.14999771  55.97000122
H    19.19000053  32.50000000  55.22999573
H    21.60000038  33.00000000  55.70999908
H    20.35000038  34.25000000  59.61999893
H    12.22000027  32.97000122  60.10000229
H    23.31000137  33.54999924  57.36999893
H    22.67000008  35.18000031  57.62000275
S    11.46999931  31.90000153  55.44000244
C     8.89000034  31.30000114  56.23000336
C    10.08999920  31.88999939  56.55000305
C    10.52000046  32.14999771  57.90000153
C     9.59000015  31.98999786  58.90999603
C     8.26000023  31.61999893  58.61999893
C     7.32999992  31.68000031  59.69999695
C     6.07999992  31.14999962  59.45999908
C     5.78000021  30.62000084  58.16999817
C     6.61999989  30.72999954  57.08000183
C     7.92000008  31.28999901  57.25999832
C    11.95000076  32.36999893  57.98999786
C    12.61999989  32.04999924  56.77999878
C    14.00000000  31.94999886  56.69000244
C     4.39000034  30.03000069  58.09000015
H     3.78673410  30.60487747  57.38737106
H     8.96000004  30.84000015  55.25000000
H     9.85999966  32.11000061  59.95999908
H     7.53000021  31.97000122  60.72999954
H     5.46000004  30.96999931  60.31999969
H     6.37000036  30.34000015  56.10000229
H    14.53999996  31.86000061  55.75000000
H     3.94000006  29.89000130  59.08000183
H     4.28000021  29.03000069  57.68000031
S    15.14000034  33.77000046  54.08000183
C    17.81999969  34.11999893  53.29000092
C    16.54999924  33.68999863  53.00000000
C    16.27000046  33.09000015  51.72999954
C    17.23999977  33.00000000  50.73999786
C    18.54999924  33.40999985  51.07999802
C    19.52999878  33.38999939  50.04000092
C    20.79999924  33.86000061  50.30000305
C    21.18000031  34.25000000  51.60999680
C    20.20999908  34.41999817  52.57999802
C    18.86999893  33.98999786  52.35000229
C    14.82999992  32.92000198  51.65999985
C    14.04000092  33.18000031  52.81000137
C    12.65999985  33.29999924  52.90000153
C    22.56999969  34.75000000  51.93000031
H    23.07306290  34.06271744  52.61019897
H    18.06999969  34.48999786  54.27999878
H    17.02000046  32.88999939  49.68999863
H    19.22000122  33.22999954  49.01000214
H    21.55999947  33.88999939  49.52999878
H    20.52999878  34.81999969  53.53000259
H    12.17000008  33.80000305  53.74000168
H    23.22000122  35.00999832  51.07999802
H    22.44999886  35.73999786  52.38999939
S    11.64000034  31.96000099  49.31000137
C     8.93000031  31.59000015  50.02999878
C    10.21000004  31.97999954  50.37000275
C    10.48999977  32.59999847  51.63000107
C     9.46000004  32.77000046  52.54000092
C     8.22000027  32.13999939  52.30999756
C     7.20000029  32.15999985  53.29999924
C     5.97000027  31.63999939  52.94000244
C     5.63000011  31.09999847  51.68000031
C     6.63999987  31.00000000  50.75000000
C     7.92000008  31.56999969  51.02000427
C    11.90999985  32.86000061  51.81000137
C    12.64999962  32.55000305  50.63999939
C    14.04000092  32.57999802  50.56000137
C     4.26999998  30.45999908  51.52999878
H     3.47411180  30.95742989  50.97571945
H     8.64999962  31.21999931  49.05000305
H     9.67000008  33.31999969  53.46000290
H     7.42000008  32.50000000  54.31000137
H     5.29999971  31.63000107  53.80000305
H     6.48000002  30.38999939  49.86999893
H    14.55999947  32.27999878  49.65000153
H     3.98999977  30.36000061  52.58999634
H     4.38000011  29.40000153  51.25000000
