96

S    16.14999962  32.62000275  60.47000122
C    18.78000069  32.79000092  59.71000290
C    17.50000000  32.43999863  59.34000015
C    17.13000107  32.07999802  58.01000214
C    18.18000031  31.98999786  57.09999847
C    19.48999977  32.40999985  57.43000031
C    20.53999901  32.45999908  56.46999741
C    21.78999901  32.93999863  56.77000046
C    22.06999969  33.45000076  58.06000137
C    21.11999893  33.36999893  59.05000305
C    19.81999969  32.86999893  58.75000000
C    15.69000053  31.90999985  57.90999985
C    15.05000019  32.27000046  59.12000275
C    13.68000031  32.52000046  59.13999939
C    23.40999985  34.11000061  58.29000092
H    24.05960655  33.41756058  58.82538986
H    19.02000046  33.16999817  60.70000076
H    17.97000122  31.71999931  56.06999969
H    20.31999969  32.22999954  55.43000031
H    22.44999886  33.02999878  55.90999985
H    21.38000107  33.72999954  60.04000092
H    13.28999996  32.77000046  60.12000275
H    23.78999901  34.40000153  57.29999924
H    23.28000069  35.04000092  58.86000061
S    12.30999947  31.11999893  55.76000214
C     9.70000076  30.86999893  56.66999817
C    10.97000027  31.35000038  56.90000153
C    11.40999985  32.02999878  58.09000015
C    10.44000053  32.14999771  59.08000183
C     9.10000038  31.78999901  58.81000137
C     8.07999992  32.02999878  59.77000427
C     6.77999973  31.59000015  59.65999985
C     6.38999987  31.00000000  58.43000031
C     7.28999996  30.88000107  57.39999771
C     8.65999985  31.21999931  57.56999969
C    12.84999943  32.19000244  58.06000137
C    13.52000046  31.73999977  56.88999939
C    14.91000080  31.67000008  56.77000046
C     5.03999996  30.30999947  58.30999756
H     4.39228058  30.90077782  57.66227722
H     9.50000000  30.36999893  55.72999954
H    10.67000008  32.49000168  60.07999802
H     8.30999947  32.50999832  60.72000122
H     6.09000015  31.70000076  60.50000000
H     6.98000002  30.29000092  56.55000305
H    15.26000023  31.28000069  55.81999969
H     4.65999985  30.19000053  59.33000183
H     5.12000036  29.30000114  57.90000153
S    15.73999977  33.15999985  54.20999908
C    18.36000061  33.56999969  53.34999847
C    17.13000107  33.02000046  53.11999893
C    16.69000053  32.56999969  51.83000183
C    17.61999893  32.50999832  50.79999924
C    18.86999893  33.13000107  50.98999786
C    19.88000107  33.06000137  49.99000168
C    21.15999985  33.52999878  50.17000198
C    21.47000122  34.13999939  51.40999603
C    20.56999969  34.18999863  52.44999695
C    19.23999977  33.72000122  52.25000000
C    15.25000000  32.37999725  51.79000092
C    14.55000019  32.66999817  52.97999954
C    13.17000008  32.80999756  53.11000061
C    22.88999939  34.61000061  51.59999847
H    23.44161415  33.94523621  52.26476288
H    18.56999969  33.95000076  54.34999847
H    17.29999924  32.00000000  49.89999771
H    19.68000031  32.43999863  49.10999680
H    21.90999985  33.29999924  49.40999985
H    20.84000015  34.45999908  53.46000290
H    12.76000023  33.13000107  54.06000137
H    23.44000053  34.68000031  50.65000153
H    22.85000038  35.61999893  52.02000046
S    11.82000065  31.67000008  49.61000061
C     9.18000031  31.32999802  50.47000122
C    10.44000053  31.81999969  50.72000122
C    10.90999985  32.29999924  51.98999786
C     9.98999977  32.30999756  53.02999878
C     8.69999981  31.77000046  52.87000275
C     7.77999973  31.73999977  53.95999908
C     6.57000017  31.11000061  53.86000061
C     6.17999983  30.59999847  52.58999634
C     7.02000046  30.68000031  51.51000214
C     8.28999996  31.31999969  51.56999969
C    12.35000038  32.47999954  52.02999878
C    13.02000046  32.16999817  50.81999969
C    14.40999985  32.13999939  50.70000076
C     4.78999996  30.02000046  52.41000366
H     4.09145784  30.61875153  51.82550812
H     8.93999958  30.93000031  49.48999786
H    10.19999981  32.77000046  53.99000168
H     8.03999996  32.29000092  54.86999893
H     5.84999990  30.97999954  54.66999817
H     6.71000004  30.42000008  50.50000000
H    14.88999939  32.06999969  49.72999954
H     4.23000002  29.76000023  53.30999756
H     4.96000004  29.04000092  51.93999863
