96

S    15.88999939  32.70000076  60.40000153
C    18.38000107  33.40999985  59.43999863
C    17.18000031  32.78000259  59.18000031
C    16.81999969  32.34000015  57.87000275
C    17.81999969  32.38999939  56.93000031
C    19.10000038  32.95999908  57.14000320
C    20.13999939  33.04999924  56.17000198
C    21.37000084  33.59000015  56.46999741
C    21.70999908  34.03000259  57.77000046
C    20.69999886  33.97999954  58.70999908
C    19.40000153  33.45000076  58.46000290
C    15.38000011  32.06999969  57.84999847
C    14.77000046  32.22999954  59.10999680
C    13.40000057  32.14999771  59.31999969
C    23.13999939  34.43000031  58.04000092
H    23.53888512  33.83167267  58.85914230
H    18.53999901  33.81999969  60.43000031
H    17.61000061  31.91999817  55.97000122
H    20.00999832  32.56999969  55.20000076
H    22.13000107  33.56999969  55.70000076
H    20.97999954  34.40000153  59.66999817
H    13.05999947  32.21999741  60.34999847
H    23.72999954  34.31999969  57.11999893
H    23.34000015  35.50000000  58.16999817
S    12.05000019  31.34000015  55.66999817
C     9.40999985  30.93000031  56.59999847
C    10.71000004  31.34000015  56.83000183
C    11.10999966  31.80000114  58.11999893
C    10.14000034  31.97999954  59.09000015
C     8.80999947  31.53000069  58.95000076
C     7.81000042  31.45999908  59.97000122
C     6.54999971  30.97999954  59.71000290
C     6.19999981  30.59000015  58.39000320
C     7.14999962  30.52999878  57.38999939
C     8.46000004  31.01000023  57.65999603
C    12.55000019  32.00000000  58.20999908
C    13.17000008  31.83000183  56.95000076
C    14.55000019  31.78999901  56.76000214
C     4.81999969  30.06999969  58.06000137
H     4.26458645  30.76782608  57.43338013
H     9.06999969  30.55000114  55.63999939
H    10.47999954  32.31999969  60.06999969
H     8.01999950  32.04000092  60.86000061
H     5.68000031  30.90999985  60.35999680
H     6.80000019  30.29999924  56.38999939
H    14.96000099  31.70000076  55.76000214
H     4.34999990  30.06999969  59.05000305
H     4.84000015  29.02000046  57.76000214
S    16.01000023  33.29000092  53.90999603
C    18.50000000  34.02000046  52.95000076
C    17.35000038  33.29000092  52.75000000
C    16.93000031  32.92000198  51.43000031
C    17.86000061  32.99000168  50.40999985
C    19.07999992  33.68999863  50.59999847
C    20.12000084  33.59999847  49.62999725
C    21.35999870  34.15999985  49.86000061
C    21.60000038  34.81999969  51.10000229
C    20.66999817  34.84000015  52.11000061
C    19.38999939  34.27000046  51.88000107
C    15.47999954  32.86999893  51.36000061
C    14.82999992  33.02999878  52.61000061
C    13.43999958  33.01000214  52.71999741
C    23.00000000  35.35000229  51.33999634
H    23.46385384  34.77196884  52.13925552
H    18.81000137  34.33000183  53.94000244
H    17.56999969  32.47999954  49.50000000
H    19.92000008  33.00000000  48.75000000
H    22.20000076  33.90999985  49.22000122
H    20.92000008  35.06000137  53.15000153
H    12.97999954  33.20000076  53.68999863
H    23.51000023  35.29000092  50.37000275
H    22.86000061  36.40999985  51.58000183
S    12.13000107  31.80999947  49.18000031
C     9.52999973  31.22999954  50.13000107
C    10.80999947  31.70000076  50.35999680
C    11.23999977  32.18000031  51.63000107
C    10.34000015  32.19000244  52.68000031
C     8.98999977  31.78999901  52.47000122
C     8.05000019  31.90000153  53.53000259
C     6.76000023  31.44000053  53.37999725
C     6.40999985  30.73999786  52.19999695
C     7.34000015  30.58000183  51.18999863
C     8.61999989  31.18999863  51.22000122
C    12.63000011  32.59000015  51.65999985
C    13.23999977  32.50000000  50.38000107
C    14.61999989  32.66999817  50.27999878
C     4.97000027  30.36000061  51.95000076
H     4.57901287  30.93581963  51.11115646
H     9.30000019  30.65999985  49.23999786
H    10.54999924  32.72000122  53.61000061
H     8.28999996  32.40999985  54.45999908
H     6.05999994  31.51000023  54.20000076
H     6.94999981  30.13000107  50.27999878
H    15.11999989  32.43999863  49.34999847
H     4.36999989  30.45999908  52.85999680
H     4.99000025  29.30000114  51.65999985
