96

S    14.78999996  33.11000061  60.41999817
C    17.47999954  33.20999908  59.59000015
C    16.17000008  32.86000061  59.34000015
C    15.72999954  32.36000061  58.06999969
C    16.65999985  32.25000000  57.05999756
C    17.97000122  32.76000214  57.23999786
C    18.92000008  32.81999969  56.18000031
C    20.22000122  33.25000000  56.31999969
C    20.68000031  33.61000061  57.61000061
C    19.75000000  33.68999863  58.62999725
C    18.40999985  33.23999786  58.52000427
C    14.29999924  32.13000107  58.06000137
C    13.61999989  32.43000031  59.27999878
C    12.25000000  32.59000015  59.40999985
C    22.06999969  34.15999985  57.83000183
H    22.55977249  33.46438217  58.51142502
H    17.85000038  33.62999725  60.52000046
H    16.34000015  31.94000053  56.06999969
H    18.60000038  32.61000061  55.15999603
H    20.79999924  33.18999863  55.40999985
H    20.06000137  33.86000061  59.65999985
H    11.77999973  32.84000015  60.35999680
H    22.67000008  34.27999878  56.91999817
H    22.00000000  35.15999985  58.27000046
S    11.09000015  31.19999886  55.84999847
C     8.43999958  30.92000008  56.63000107
C     9.68000031  31.45000076  56.90000153
C    10.06999969  32.09999847  58.11999893
C     9.02999973  32.18000031  59.02000046
C     7.69999981  31.71999931  58.81999969
C     6.71999979  31.68999863  59.85000229
C     5.47999954  31.15999985  59.59999847
C     5.19000006  30.43999863  58.40999985
C     6.19999981  30.28000069  57.48000336
C     7.42000008  31.00000000  57.61000061
C    11.51000023  32.27999878  58.27000046
C    12.17000008  31.87999916  57.08000183
C    13.55000019  31.86000061  56.90999985
C     3.84000015  29.82000160  58.13000107
H     3.23748684  30.42960167  57.45660400
H     8.19999981  30.27000046  55.79000092
H     9.21000004  32.47000122  60.05000305
H     7.04999971  31.87000084  60.86999893
H     4.75000000  31.07000160  60.40000153
H     5.98999977  29.75000000  56.55000305
H    14.00000000  31.57999992  55.96000290
H     3.31999993  29.56000137  59.05000305
H     4.09000015  28.88000107  57.63000107
S    11.39000034  28.98999977  52.77000046
C     8.76999950  28.36999893  53.60000229
C    10.11999989  28.39999962  53.85000229
C    10.67999935  28.09999847  55.13999939
C     9.89000034  27.36000061  55.98999786
C     8.51000023  27.19000053  55.70000076
C     7.59999990  26.57999992  56.59999847
C     6.25999975  26.40000153  56.33999634
C     5.65999985  26.98999786  55.19000244
C     6.48000002  27.65000153  54.31000137
C     7.88999987  27.70000076  54.50000000
C    12.13000107  28.26000023  55.20000076
C    12.63000011  28.90000153  54.02999878
C    13.94000053  29.34000015  53.92000198
C     4.15999985  27.11999893  55.06999969
H     3.76008749  26.80578232  54.10592651
H     8.32999992  28.75999832  52.69000244
H    10.26000023  26.97000122  56.93000031
H     8.10000038  26.09999847  57.43000031
H     5.71000004  25.93000031  57.14000320
H     6.09000015  28.15999985  53.43000031
H    14.29999924  29.89999962  53.06000137
H     3.60000014  26.61999893  55.86999893
H     3.96000004  28.18000031  55.25000000
S    15.69000053  27.93000031  57.15999985
C    18.23999977  28.74000168  56.38000107
C    16.88999939  28.71999931  56.11999893
C    16.26000023  29.30999947  54.98000336
C    17.09000015  29.97999954  54.09999847
C    18.48999977  30.03999901  54.27999878
C    19.40999985  30.79000092  53.48999786
C    20.78000069  30.73999786  53.61000061
C    21.32999802  29.86999893  54.59000015
C    20.48999977  29.23999977  55.47999954
C    19.06999969  29.37999916  55.43000031
C    14.85000038  28.94000053  54.89999771
C    14.35999966  28.22999954  56.02000427
C    13.02000046  27.89999962  56.22000122
C    22.80999947  29.59000015  54.73999786
H    23.24307823  30.05147743  55.62745667
H    18.67000008  28.19999886  57.22000122
H    16.62999916  30.38999939  53.20000076
H    18.96000099  31.38999939  52.70999908
H    21.35000038  31.28999901  52.87000275
H    20.90999985  28.52999878  56.18000031
H    12.63000011  27.37999916  57.09000015
H    23.32999992  29.99000168  53.87000275
H    22.86000061  28.48999977  54.80999756
