96

S    15.93000031  32.92000198  60.61999893
C    18.51000023  33.36000061  59.77000427
C    17.23999977  32.95000076  59.41999817
C    16.81999969  32.52999878  58.11999893
C    17.80999947  32.36999893  57.15999985
C    19.10000038  32.93999863  57.34000397
C    20.00999832  33.06000137  56.25999832
C    21.22999954  33.65000153  56.49000168
C    21.64999962  33.93000031  57.81999969
C    20.76999855  33.74000168  58.86000061
C    19.43000031  33.29999924  58.69999695
C    15.39999962  32.26000214  58.04000092
C    14.80000019  32.62000275  59.27999878
C    13.42000008  32.66999817  59.40000153
C    23.05000114  34.40999985  58.13999939
H    23.65736198  33.79549408  58.80452347
H    18.82999992  33.65000153  60.76000214
H    17.52000046  32.04999924  56.17000198
H    19.68000031  32.79000092  55.26000214
H    21.96000099  33.58000183  55.68999863
H    21.09999847  33.90999985  59.87999725
H    13.02000046  32.95999908  60.37000275
H    23.54999924  34.40000153  57.15999985
H    23.11000061  35.43999863  58.52000427
S    12.09000015  31.54000092  55.76000214
C     9.56999969  30.89999962  56.79000092
C    10.80999947  31.45000076  56.98999786
C    11.19999981  32.07999802  58.22000122
C    10.26999950  32.13999939  59.23999786
C     8.94999981  31.68999863  59.02999878
C     7.96000004  31.86000061  60.04000092
C     6.69000053  31.40999985  59.79000092
C     6.32000017  30.66999817  58.62999725
C     7.28999996  30.46999931  57.67000198
C     8.59000015  31.04999924  57.78999710
C    12.64000034  32.26000214  58.29999924
C    13.22999954  31.90999985  57.05999756
C    14.61999989  31.97000122  56.91999817
C     4.90000010  30.23999977  58.34999847
H     4.45218945  30.84418869  57.56099701
H     9.22999954  30.48999977  55.84000015
H    10.53999996  32.44999695  60.25000000
H     8.27000046  32.22999954  61.00999832
H     5.91000032  31.42999840  60.54000092
H     7.07999992  29.94999886  56.73999786
H    15.08999920  31.87999916  55.93999863
H     4.36999989  30.32999992  59.29999924
H     4.79999971  29.18999863  58.04999924
S    16.27000046  33.75999832  54.10999680
C    18.85000038  34.29999924  53.04999924
C    17.60000038  33.75000000  52.94000244
C    17.20999908  33.01000214  51.77000046
C    18.11000061  32.85000229  50.72999954
C    19.42000008  33.36999893  50.86000061
C    20.40999985  33.08000183  49.87999725
C    21.70999908  33.48999786  50.00999832
C    22.07999992  34.20999908  51.18000031
C    21.14999962  34.56000137  52.12999725
C    19.79999924  34.13999939  52.01000214
C    15.77000046  32.80999756  51.63999939
C    15.15999985  33.13000107  52.88000107
C    13.78000069  33.09999847  53.08000183
C    23.48999977  34.71999741  51.43000031
H    23.88303375  34.29123688  52.35184097
H    19.14999962  35.02999878  53.80000305
H    17.78000069  32.43000031  49.78000259
H    20.15999985  32.33000183  49.13000107
H    22.47999954  33.27000046  49.27999878
H    21.35000038  35.22999954  52.95999908
H    13.27999973  33.27000046  54.02000046
H    23.97999954  34.31999969  50.52999878
H    23.57000160  35.81000137  51.50000000
S    12.48000050  31.80000114  49.54000092
C     9.81999969  31.64999962  50.44000244
C    11.13999939  31.94000053  50.70000076
C    11.54000092  32.54000092  51.93000031
C    10.57999992  32.59000015  52.93000031
C     9.22999954  32.20999908  52.75000000
C     8.23000050  32.20000076  53.75000000
C     6.91999960  31.86000061  53.47999954
C     6.58999968  31.30000114  52.22000122
C     7.50999975  31.28000069  51.19999695
C     8.85000038  31.67000008  51.46999741
C    12.97000027  32.81999969  51.97000122
C    13.57999992  32.52000046  50.72999954
C    14.96000099  32.42000198  50.56999969
C     5.26999998  30.61000061  51.95000076
H     4.65929985  31.18519402  51.25408554
H     9.57999992  31.15999985  49.50000000
H    10.77000046  33.04999924  53.89999771
H     8.46000004  32.61000061  54.72999954
H     6.25999975  31.98999786  54.33000183
H     7.25000000  31.09999847  50.15999603
H    15.38000011  32.15999985  49.59999847
H     4.88000011  30.45999908  52.95999908
H     5.61999989  29.63000107  51.58000183
