96

S    14.78999996  33.11000061  60.41999817
C    17.47999954  33.20999908  59.59000015
C    16.17000008  32.86000061  59.34000015
C    15.72999954  32.36000061  58.06999969
C    16.65999985  32.25000000  57.05999756
C    17.97000122  32.76000214  57.23999786
C    18.92000008  32.81999969  56.18000031
C    20.22000122  33.25000000  56.31999969
C    20.68000031  33.61000061  57.61000061
C    19.75000000  33.68999863  58.62999725
C    18.40999985  33.23999786  58.52000427
C    14.29999924  32.13000107  58.06000137
C    13.61999989  32.43000031  59.27999878
C    12.25000000  32.59000015  59.40999985
C    22.06999969  34.15999985  57.83000183
H    22.55977249  33.46438217  58.51142502
H    17.85000038  33.62999725  60.52000046
H    16.34000015  31.94000053  56.06999969
H    18.60000038  32.61000061  55.15999603
H    20.79999924  33.18999863  55.40999985
H    20.06000137  33.86000061  59.65999985
H    11.77999973  32.84000015  60.35999680
H    22.67000008  34.27999878  56.91999817
H    22.00000000  35.15999985  58.27000046
S    11.09000015  31.19999886  55.84999847
C     8.43999958  30.92000008  56.63000107
C     9.68000031  31.45000076  56.90000153
C    10.06999969  32.09999847  58.11999893
C     9.02999973  32.18000031  59.02000046
C     7.69999981  31.71999931  58.81999969
C     6.71999979  31.68999863  59.85000229
C     5.47999954  31.15999985  59.59999847
C     5.19000006  30.43999863  58.40999985
C     6.19999981  30.28000069  57.48000336
C     7.42000008  31.00000000  57.61000061
C    11.51000023  32.27999878  58.27000046
C    12.17000008  31.87999916  57.08000183
C    13.55000019  31.86000061  56.90999985
C     3.84000015  29.82000160  58.13000107
H     3.23748684  30.42960167  57.45660400
H     8.19999981  30.27000046  55.79000092
H     9.21000004  32.47000122  60.05000305
H     7.04999971  31.87000084  60.86999893
H     4.75000000  31.07000160  60.40000153
H     5.98999977  29.75000000  56.55000305
H    14.00000000  31.57999992  55.96000290
H     3.31999993  29.56000137  59.05000305
H     4.09000015  28.88000107  57.63000107
S    15.11000061  33.36000061  54.16999817
C    17.56000137  34.18000031  53.15000153
C    16.35000038  33.56999969  52.91999817
C    16.03999901  33.04000092  51.62000275
C    16.98999977  33.00000000  50.61999893
C    18.29000092  33.50000000  50.86000061
C    19.36000061  33.36999893  49.93000031
C    20.59999847  33.86000061  50.26000214
C    20.85000038  34.43000031  51.53999710
C    19.86999893  34.52000046  52.49000168
C    18.55999947  34.05999756  52.15999985
C    14.63000107  32.68000031  51.63000107
C    14.00000000  32.80999756  52.90000153
C    12.64000034  32.65999985  53.09999847
C    22.29000092  34.79999924  51.84000015
H    22.86089897  34.15060043  52.50366974
H    17.73999977  34.56000137  54.15000153
H    16.69000053  32.43999863  49.72999954
H    19.17000008  32.81999969  49.02000046
H    21.28000069  33.84000015  49.40999985
H    20.12000084  34.77000046  53.52000427
H    12.20999908  32.92000198  54.06000137
H    22.79000092  34.84000015  50.86000061
H    22.23999977  35.81999969  52.25000000
S    11.33999920  31.87000084  49.36000061
C     8.80999947  31.14000130  50.34000015
C    10.05000019  31.68000031  50.56000137
C    10.43000031  32.13999939  51.86000061
C     9.50000000  32.13000107  52.88000107
C     8.14999962  31.78999901  52.58999634
C     7.13999987  31.86000061  53.59000397
C     5.91000032  31.28000069  53.37999725
C     5.56999969  30.72999954  52.11999893
C     6.44999981  30.79999924  51.06999969
C     7.78999996  31.21000099  51.32999802
C    11.85999966  32.38999939  51.95999908
C    12.44999981  32.30999756  50.66999817
C    13.82999992  32.40000153  50.52000046
C     4.23999977  30.03000069  51.93999863
H     3.73884892  30.50251389  51.09520340
H     8.47000027  30.96999931  49.31999969
H     9.68999958  32.49000168  53.88999939
H     7.36999989  32.43000031  54.48999786
H     5.22000027  31.24000168  54.22000122
H     6.19000006  30.29999924  50.13999939
H    14.37000084  32.30999756  49.58000183
H     3.61999989  30.05000114  52.84999847
H     4.34999990  28.95000076  51.75000000
