96

S    15.57000065  32.70000076  60.44000244
C    18.29000092  33.06000137  59.80999756
C    17.01000023  32.70999908  59.40999985
C    16.69999886  32.31999969  58.06999969
C    17.75000000  32.29000092  57.18000031
C    19.05999947  32.69000244  57.54000092
C    20.03999901  32.79999924  56.52000046
C    21.27000046  33.36000061  56.79999924
C    21.61999893  33.65999985  58.15000153
C    20.66999817  33.61000061  59.13999939
C    19.34000015  33.16999817  58.87000275
C    15.27999973  32.09000015  57.87000275
C    14.52999973  32.27000046  59.06000137
C    13.14000034  32.27999878  59.12000275
C    23.00000000  34.18999863  58.47000122
H    23.61851120  33.45774078  58.98898315
H    18.44000053  33.31000137  60.86000061
H    17.64999962  32.02000046  56.12999725
H    19.86999893  32.43000031  55.52000046
H    21.93000031  33.62999725  55.98999786
H    20.96999931  33.95000076  60.13000107
H    12.69000053  32.29999924  60.11000061
H    23.47999954  34.43999863  57.51999664
H    22.86999893  35.11000061  59.05000305
S    12.10000038  31.25000000  55.43000031
C     9.42000008  30.81999969  56.11000061
C    10.67999935  31.24000168  56.50000000
C    11.06999969  31.63000107  57.81000137
C    10.11000061  31.70999908  58.81000137
C     8.82000065  31.25000000  58.47000122
C     7.83999968  31.28000069  59.50000000
C     6.58999968  30.75000000  59.26000214
C     6.28000021  30.17000008  58.01000214
C     7.25000000  30.02000046  57.04000092
C     8.51000023  30.68000031  57.18999863
C    12.50000000  31.90000153  57.94000244
C    13.22000027  31.57999992  56.76000214
C    14.60000038  31.70999908  56.70000076
C     4.92999983  29.51999855  57.77999878
H     4.43986320  30.00303268  56.93469238
H     9.36999989  30.39999962  55.11000061
H    10.27999973  31.98999786  59.85000229
H     8.10000038  31.71999931  60.45000076
H     5.82999992  30.88000107  60.02999878
H     7.09000015  29.70000076  56.02000427
H    15.14999962  31.50000000  55.79000092
H     4.32999992  29.51000023  58.68999863
H     4.98000002  28.43000031  57.69000244
S    11.97999954  28.84000015  52.68000031
C     9.48000050  28.16999817  53.63999939
C    10.84000015  28.15000153  53.85000229
C    11.47999954  27.78000069  55.07999802
C    10.62000084  27.32999992  56.05999756
C     9.22000027  27.22999954  55.86999893
C     8.39999962  26.44000053  56.72999954
C     7.04999971  26.22999954  56.55000305
C     6.44000006  26.84000015  55.41999817
C     7.21000004  27.56000137  54.52999878
C     8.60999966  27.75000000  54.68000031
C    12.90999985  28.05999947  55.06000137
C    13.30999947  28.64000130  53.82999802
C    14.63000107  29.01000023  53.61000061
C     5.01999950  26.40999985  55.13999939
H     4.50727701  26.93696594  54.33531189
H     9.10000038  28.59999847  52.70999908
H    11.07999992  26.70000076  56.81999969
H     8.86999989  25.96999931  57.58999634
H     6.42000008  25.62999916  57.18999863
H     6.80000019  27.93000031  53.59000397
H    14.85000038  29.40999985  52.62000275
H     4.94999981  25.35000038  54.86999893
H     4.46999979  26.54000092  56.07999802
S    16.44000053  28.29000092  57.04000092
C    18.94000053  29.02000046  56.05999756
C    17.59000015  28.92999840  55.84999847
C    16.98999977  29.30000114  54.59999847
C    17.75000000  29.84999847  53.59000397
C    19.15999985  29.93999863  53.75000000
C    19.96999931  30.66999817  52.83000183
C    21.30000114  30.81999969  53.13999939
C    21.91999817  30.31999969  54.31999969
C    21.14000130  29.57999992  55.18000031
C    19.73999977  29.46000099  54.97000122
C    15.59000015  28.90999985  54.61999893
C    15.13000011  28.36000061  55.84999847
C    13.85000038  27.86999893  56.07999802
C    23.31999969  30.71000099  54.72000122
H    23.72764015  30.23799706  55.61394882
H    19.32999992  28.80000114  57.04999924
H    17.34000015  30.15999985  52.63000107
H    19.52999878  31.21999931  52.00000000
H    21.90000153  31.54999924  52.61000061
H    21.52000046  29.10000038  56.07999802
H    13.69999981  27.39999962  57.04999924
H    23.29999924  31.80000114  54.79999924
H    24.04000092  30.51000214  53.90999603
