96

S    15.64000034  32.63000107  60.63000107
C    18.20999908  33.29999924  59.69999695
C    16.97999954  32.70999908  59.47000122
C    16.53000069  32.34999847  58.15999985
C    17.47999954  32.40999985  57.15999985
C    18.81000137  32.85000229  57.36000061
C    19.77000046  32.99000168  56.31999969
C    21.04000092  33.39999771  56.63999939
C    21.38999939  33.81999969  57.95000076
C    20.50000000  33.72000122  59.00000000
C    19.18000031  33.31999969  58.67000198
C    15.07999992  32.27000046  58.09000015
C    14.45000076  32.63000107  59.31000137
C    13.07000065  32.76000214  59.40000153
C    22.76000023  34.40999985  58.16999817
H    23.39871216  33.77838516  58.78741837
H    18.52000046  33.68000031  60.66999817
H    17.05999947  32.19000244  56.18000031
H    19.34999847  32.76000214  55.34000015
H    21.65999985  33.46999741  55.76000214
H    20.78000069  33.93000031  60.02999878
H    12.58999920  32.76000214  60.37000275
H    23.22999954  34.61999893  57.19999695
H    22.75000000  35.40000153  58.62999725
S    11.75000000  31.52000046  55.83000183
C     9.17000008  31.21000099  56.73999786
C    10.42000008  31.71999931  56.98999786
C    10.84000015  32.34999847  58.20999908
C     9.92000008  32.29000092  59.23999786
C     8.60999966  31.80999947  59.02999878
C     7.63999987  31.96000099  60.06000137
C     6.32999992  31.68999863  59.75999832
C     5.91000032  31.22999954  58.47999954
C     6.80999994  31.15999985  57.43999863
C     8.19000053  31.28999901  57.76000214
C    12.28999996  32.50999832  58.27000046
C    12.89999962  32.09000015  57.04999924
C    14.27999973  32.02000046  56.95999908
C     4.53000021  30.68000031  58.22000122
H     4.01872778  31.08475685  57.34657669
H     8.84000015  30.98999977  55.72000122
H    10.27999973  32.54000092  60.22999573
H     8.03999996  32.34999847  60.98999786
H     5.51000023  31.98999786  60.41999817
H     6.51999998  30.84000015  56.44000244
H    14.81999969  31.71999931  56.06999969
H     3.95000005  30.90999985  59.12000275
H     4.48999977  29.57999992  58.15999985
S    12.00000000  29.38999939  52.78999710
C     9.48000050  28.88999939  53.89999771
C    10.84000015  28.67000198  53.93000031
C    11.49000072  28.08000183  55.06000137
C    10.65999985  27.50000000  55.98999786
C     9.25000000  27.57999802  55.94999695
C     8.36999989  26.97999954  56.90000153
C     7.00000000  27.07999992  56.73999786
C     6.38999987  27.76000023  55.65999985
C     7.22000027  28.45000076  54.79999924
C     8.63000011  28.36000061  54.91000366
C    12.90999985  28.38999939  55.07999802
C    13.32999992  29.13000107  53.94000244
C    14.60000038  29.65999985  53.76999664
C     4.88999987  27.86999893  55.54000092
H     4.56265783  27.19396591  54.75011063
H     9.13999939  29.44000053  53.02999878
H    11.06999969  26.90999985  56.81000137
H     8.64999962  26.40000153  57.77999878
H     6.39999962  26.55999947  57.48000336
H     6.74000025  28.94000053  53.95999908
H    15.06999969  30.12000084  52.90000153
H     4.50000000  27.50999832  56.51000214
H     4.51999998  28.87000084  55.31000137
S    16.39999962  28.35000038  57.09000015
C    18.90999985  28.88000107  55.98999786
C    17.54999924  29.11000061  55.97000122
C    16.95999908  29.59000015  54.75999832
C    17.75000000  30.02000046  53.70999908
C    19.15999985  29.93000031  53.76999664
C    20.03000069  30.43000031  52.76000214
C    21.40000153  30.36000061  52.91999817
C    21.98999786  29.82000160  54.09000015
C    21.15999985  29.37000084  55.08999634
C    19.73999977  29.41999817  54.98000336
C    15.51000023  29.44000053  54.79999924
C    15.07999992  28.78000069  55.97999954
C    13.85000038  28.13999939  56.09000397
C    23.46999931  29.50000000  54.13999939
H    23.90427780  30.08378410  54.95160294
H    19.31999969  28.43000031  56.88999939
H    17.20000076  30.35000038  52.83000183
H    19.48999977  31.01000023  52.02000046
H    21.90999985  30.88999939  52.11999893
H    21.61000061  28.78999901  55.89000320
H    13.55999947  27.52000046  56.93999863
H    23.88999939  29.89999962  53.20999908
H    23.61000061  28.42000008  54.22999954
