96

S    15.19000053  33.22000122  60.31000137
C    17.79000092  33.72000122  59.45000076
C    16.54999924  33.20000076  59.18000031
C    16.14999962  32.56000137  57.95999908
C    17.19000053  32.47000122  57.04000092
C    18.47999954  33.01000214  57.21000290
C    19.45999908  32.86999893  56.18000031
C    20.69999886  33.38000107  56.45000076
C    21.09000015  34.02000046  57.65999603
C    20.13999939  34.09000015  58.64999771
C    18.81000137  33.61999893  58.47000122
C    14.73999977  32.23999786  57.84000015
C    14.11999893  32.50999832  59.09000015
C    12.75000000  32.42000198  59.29999924
C    22.50000000  34.54999924  57.81999969
H    23.09575081  33.89750671  58.45830536
H    17.94000053  34.18000031  60.43000031
H    16.97999954  32.02999878  56.06999969
H    19.11999893  32.34000015  55.28999710
H    21.45000076  33.34999847  55.65999985
H    20.36999893  34.38000107  59.66999817
H    12.28999996  32.68000031  60.25000000
H    22.96999931  34.72999954  56.84999847
H    22.32999992  35.52999878  58.27999878
S    11.49000072  31.38000107  55.65999985
C     8.89999962  30.92000008  56.53999710
C    10.14999962  31.42999840  56.81000137
C    10.52999973  31.91999817  58.09999847
C     9.55000019  31.96000099  59.08000183
C     8.22000027  31.54000092  58.83999634
C     7.23999977  31.55999947  59.86999893
C     5.97000027  31.09999847  59.61999893
C     5.59000015  30.62999916  58.33000183
C     6.57999992  30.52000046  57.37999725
C     7.90999985  30.98999977  57.55000305
C    11.97000027  32.09000015  58.18000031
C    12.63000011  31.80000114  56.95999908
C    14.00000000  31.87000084  56.70999908
C     4.25000000  30.03000069  57.98999786
H     3.73423457  30.55282974  57.18455505
H     8.71999931  30.45000076  55.58000183
H     9.85000038  32.06000137  60.12000275
H     7.48000050  32.09999847  60.77999878
H     5.25000000  31.07000160  60.43000031
H     6.44999981  29.96000099  56.45000076
H    14.52999973  31.67000008  55.79000092
H     3.53999996  29.89000130  58.81000137
H     4.30999994  29.00000000  57.62000275
S    11.56000042  29.46000099  52.63999939
C     9.09000015  28.52999878  53.54000092
C    10.44999981  28.57999992  53.69999695
C    11.06999969  27.93999863  54.81999969
C    10.34999943  27.26000023  55.79000092
C     8.93999958  27.29999924  55.66999817
C     8.05999947  26.78999901  56.66999817
C     6.70000029  26.61999893  56.51000214
C     6.11999989  27.01000023  55.27999878
C     6.90000010  27.65000153  54.34000015
C     8.30000019  27.81999969  54.48999786
C    12.48999977  28.26999855  54.80999756
C    12.92000008  29.04999924  53.70999908
C    14.18000031  29.59000015  53.50000000
C     4.67000008  26.67000008  55.06000137
H     4.22287416  27.14551544  54.18703842
H     8.75000000  28.80000114  52.54000092
H    10.86999989  26.84000015  56.63999939
H     8.57999992  26.31000137  57.50000000
H     6.15999985  26.12999916  57.30999756
H     6.50000000  28.09999847  53.43000031
H    14.42999935  30.06000137  52.55000305
H     4.55999994  25.58000183  55.05000305
H     4.19999981  26.97999954  56.00000000
S    16.05999947  28.12000084  56.72000122
C    18.54999924  28.97999954  55.84000015
C    17.20000076  28.92000008  55.61999893
C    16.56999969  29.41999817  54.43000031
C    17.36999893  30.00999832  53.46000290
C    18.78000069  30.05000114  53.61000061
C    19.62000084  30.69000053  52.65999603
C    20.96999931  30.84000015  52.88000107
C    21.54000092  30.42000008  54.12000275
C    20.76000023  29.72999954  55.01999664
C    19.36000061  29.60000038  54.85000229
C    15.13000011  29.27000046  54.47999954
C    14.73999977  28.50000000  55.61000061
C    13.45000076  28.01000214  55.79000092
C    22.98000145  30.76999855  54.40000153
H    23.24331474  30.43551826  55.40343857
H    19.01000023  28.44000053  56.65999985
H    17.05999947  30.62999916  52.63000107
H    19.22000122  31.09000015  51.72999954
H    21.40999985  31.64999962  52.29999924
H    21.25999832  29.33000183  55.90000153
H    13.27000046  27.46999931  56.72000122
H    23.21000099  31.84000015  54.45000076
H    23.62999916  30.28000069  53.66000366
