96

S    15.06000042  32.78000259  60.31000137
C    17.61000061  33.25999832  59.34000015
C    16.36999893  32.72000122  59.10999680
C    15.85000038  32.33000183  57.84000015
C    16.72999954  32.45999908  56.77999878
C    18.11000061  32.65000153  57.02000046
C    19.05999947  32.54000092  55.97000122
C    20.38000107  32.88000107  56.14999771
C    20.79000092  33.43000031  57.38999939
C    19.90999985  33.55999756  58.44999695
C    18.55999947  33.15999985  58.29000092
C    14.40000057  32.18000031  57.78999710
C    13.82999992  32.49000168  59.05000305
C    12.46000099  32.54000092  59.23999786
C    22.21999931  33.88000107  57.57999802
H    22.62545586  33.41052628  58.47626877
H    17.87999916  33.61999893  60.33000183
H    16.39000130  32.34999847  55.75000000
H    18.67000008  32.21999741  55.00999832
H    21.05999947  32.62000275  55.34000015
H    20.26000023  34.05999756  59.34999847
H    12.18999958  32.73999786  60.27999878
H    22.78000069  33.67000198  56.65999985
H    22.13000107  34.97000122  57.67000198
S    10.93000031  31.45999908  55.72999954
C     8.42000008  31.02999878  56.81000137
C     9.65999985  31.60000038  56.95999908
C    10.11999989  32.13999939  58.20000076
C     9.26000023  32.15999985  59.27999878
C     7.92000008  31.73000145  59.13999939
C     6.98999977  31.77999878  60.21999741
C     5.68000031  31.40999985  60.06999969
C     5.26000023  30.88000107  58.81999969
C     6.17999983  30.65000153  57.81999969
C     7.50000000  31.18000031  57.88000107
C    11.57999992  32.16999817  58.22000122
C    12.15000057  31.84999847  56.95999908
C    13.52000046  31.94000053  56.72999954
C     3.81000018  30.52000046  58.57999802
H     3.38910508  30.89095879  57.64547348
H     8.14000034  30.52000046  55.89000320
H     9.67000008  32.59000015  60.20000076
H     7.34000015  32.18000031  61.17000198
H     5.01999950  31.45999908  60.93000031
H     5.82999992  30.29999924  56.84999847
H    13.93000031  31.81999969  55.72999954
H     3.23000002  30.92000008  59.41999817
H     3.81999993  29.41999817  58.63999939
S    11.42000008  29.27000046  52.39999771
C     8.80000019  28.78999901  53.26000214
C    10.14000034  28.54999924  53.40000153
C    10.67000008  27.98999977  54.59999847
C     9.78999996  27.62000084  55.61000061
C     8.39999962  27.77000046  55.45000076
C     7.42999983  27.30999947  56.38999939
C     6.07999992  27.47999954  56.20999908
C     5.56999969  28.12000084  55.05000305
C     6.47000027  28.55999947  54.09999847
C     7.86999989  28.38999939  54.26000214
C    12.10999966  28.22000122  54.69999695
C    12.69000053  28.80000114  53.54999924
C    13.97999954  29.30999947  53.55999756
C     4.09999990  28.22999954  54.68999863
H     3.74488139  27.53396797  53.93004608
H     8.47000027  29.20999908  52.30999756
H    10.11000061  27.20000076  56.56000137
H     7.73999977  26.77000046  57.27000427
H     5.40999985  27.04999924  56.95000076
H     6.17999983  29.11000061  53.20999908
H    14.34999943  30.00999832  52.81000137
H     3.40000010  28.12000084  55.52000046
H     3.97000027  29.25000000  54.31999969
S    15.51000023  27.85000038  56.97999954
C    18.09000015  28.55999947  56.24000168
C    16.75000000  28.57999992  55.93000031
C    16.26000023  29.06999969  54.68000031
C    17.13000107  29.60000038  53.75000000
C    18.51000023  29.51000023  54.05000305
C    19.48999977  29.84000015  53.08000183
C    20.82999992  29.73999977  53.37999725
C    21.30000114  29.21999931  54.61000061
C    20.42000008  29.03000069  55.65000153
C    19.04000092  29.06999969  55.31999969
C    14.80999947  28.92999840  54.61999893
C    14.29999924  28.19999886  55.72999954
C    12.94000053  27.95000076  55.79999924
C    22.70000076  28.64999962  54.59999847
H    23.36184311  29.24067688  55.23337555
H    18.45999908  28.05999947  57.12999725
H    16.77000046  30.07999802  52.84000015
H    19.22999954  30.06000137  52.04000092
H    21.61000061  29.96000099  52.65999603
H    20.71000099  28.57999992  56.59999847
H    12.46000099  27.50000000  56.66999817
H    23.11000061  28.57999992  53.59000397
H    22.56000137  27.60999870  54.93000031
