96

S    14.98999977  32.97000122  60.35999680
C    17.61999893  33.34000015  59.43000031
C    16.31000137  33.00000000  59.18000031
C    15.82999992  32.56999969  57.90000153
C    16.79000092  32.38999939  56.91999817
C    18.09000015  32.95000076  57.04999924
C    18.96000099  33.00000000  55.91999817
C    20.23999977  33.48999786  56.05999756
C    20.65999985  34.02000046  57.30999756
C    19.79999924  34.04999924  58.37999725
C    18.47999954  33.50000000  58.31999969
C    14.39000034  32.40000153  57.85999680
C    13.78000069  32.56000137  59.13000107
C    12.41000080  32.40000153  59.29999924
C    22.10000038  34.45000076  57.50999832
H    22.58904648  33.80502701  58.24002457
H    17.84000015  33.75999832  60.40999985
H    16.61000061  31.76000214  56.05999756
H    18.67000008  32.38999939  55.06000137
H    20.96999931  33.25999832  55.30000305
H    20.13000107  34.27999878  59.38000107
H    12.02999973  32.63000107  60.28999710
H    22.67999840  34.47999954  56.58000183
H    22.13999939  35.47999954  57.90000153
S    11.06999969  31.25999832  55.76000214
C     8.42000008  30.88000107  56.59000015
C     9.68000031  31.37000084  56.84999847
C    10.15999985  31.77000046  58.13999939
C     9.25000000  31.70000076  59.18000031
C     7.90999985  31.27000046  58.99000168
C     7.00999975  31.35000038  60.10000229
C     5.71000004  30.96999931  59.87999725
C     5.31000042  30.32999992  58.68000031
C     6.23000050  30.22000122  57.65999603
C     7.51999950  30.81000137  57.69000244
C    11.59000015  32.02999878  58.22000122
C    12.23000050  31.81999969  56.97999954
C    13.60000038  31.97000122  56.77999878
C     3.88000011  29.86000061  58.47000122
H     3.32440925  30.44408226  57.73633575
H     8.23999977  30.27000046  55.70999908
H     9.55000019  31.91999817  60.20000076
H     7.36000013  31.75000000  61.04999924
H     5.03000021  31.07000160  60.70999908
H     5.96000004  29.77999878  56.70000076
H    14.02999973  31.63999939  55.84000015
H     3.44000006  29.86999893  59.47000122
H     3.86999989  28.80000114  58.20000076
S    11.63000011  29.07999992  52.45999908
C     9.02999973  28.36000061  53.22999954
C    10.36000061  28.48999977  53.54999924
C    10.92000008  28.05000114  54.79000092
C    10.13000011  27.32999992  55.65999985
C     8.75000000  27.17000008  55.35999680
C     7.88000011  26.63000107  56.35000229
C     6.51000023  26.80000114  56.25000000
C     5.95000029  27.43999863  55.12000275
C     6.76000023  27.86000061  54.08000183
C     8.17000008  27.77000046  54.19000244
C    12.34000015  28.34000015  54.92000198
C    12.86000061  28.92999840  53.73000336
C    14.15999985  29.40000153  53.61999893
C     4.46000004  27.69000053  55.10000229
H     3.96986341  27.17144966  54.27600479
H     8.75000000  28.69999886  52.23999786
H    10.52000046  26.84000015  56.55000305
H     8.26000023  26.24000168  57.29000092
H     6.00000000  26.57999992  57.18000031
H     6.42000008  28.26000023  53.13000107
H    14.55999947  29.79000092  52.69000244
H     4.02999973  27.34999847  56.04999924
H     4.34999990  28.78000069  55.04000092
S    15.82999992  28.01000214  56.93000031
C    18.37000084  29.04000092  56.18000031
C    17.02000046  28.88000107  55.93999863
C    16.47999954  29.37999916  54.71000290
C    17.26000023  29.93999863  53.72000122
C    18.65999985  29.96999931  53.93000031
C    19.51000023  30.29999924  52.84999847
C    20.86000061  30.46999931  53.09999847
C    21.42000008  30.26000023  54.38999939
C    20.62999916  29.70000076  55.38000107
C    19.22000122  29.63999939  55.21999741
C    15.03999901  29.15999985  54.68000031
C    14.52000046  28.54999924  55.84999847
C    13.17999935  28.21000099  56.03000259
C    22.82999992  30.72000122  54.62999725
H    23.18460655  30.44340706  55.62289810
H    18.76000023  28.57000160  57.08000183
H    16.82999992  30.32999992  52.80000305
H    19.04000092  30.56999969  51.90999985
H    21.47999954  30.93000031  52.35000229
H    21.00000000  29.27999878  56.31000137
H    12.82999992  27.62000084  56.86000061
H    22.81999969  31.81999969  54.56999969
H    23.55999947  30.35000038  53.90999603
