96

S    14.88000011  33.47999954  60.27000046
C    17.57999992  33.61000061  59.43000031
C    16.27000046  33.22999954  59.19000244
C    15.90000057  32.62000275  57.95999908
C    16.88999939  32.47999954  57.00000000
C    18.25000000  32.83000183  57.18999863
C    19.23999977  32.77000046  56.17000198
C    20.55999947  33.04000092  56.45000076
C    20.82999992  33.77999878  57.62000275
C    19.84000015  34.06999969  58.53000259
C    18.60000038  33.38000107  58.47000122
C    14.47999954  32.29999924  57.94000244
C    13.76999950  32.81999969  59.06000137
C    12.38000011  32.80999756  59.12000275
C    22.17000008  34.43999863  57.87000275
H    22.73693848  33.84471130  58.58576202
H    17.79999924  34.36000061  60.18000031
H    16.73999977  31.91999817  56.09000397
H    18.98999977  32.47000122  55.14999771
H    21.27000046  33.13999939  55.63000107
H    20.00000000  34.80999756  59.31000137
H    11.75000000  33.04999924  59.97000122
H    22.70999908  34.47999954  56.91999817
H    22.01000023  35.42000198  58.33000183
S    11.32999992  30.96999931  55.75000000
C     8.63000011  30.85000038  56.58000183
C     9.92999935  31.24000168  56.81000137
C    10.26000023  31.84999847  58.06999969
C     9.21000004  32.25000000  58.88000107
C     7.86999989  31.87000084  58.68000031
C     6.88000011  31.97000122  59.69999695
C     5.64000034  31.42000008  59.47000122
C     5.28999996  30.86999893  58.20999908
C     6.21999979  30.81000137  57.19999695
C     7.57000017  31.15999985  57.47000122
C    11.69000053  32.09000015  58.13000107
C    12.39999962  31.68000031  56.97999954
C    13.78000069  31.73999977  56.86000061
C     3.91000009  30.29999924  57.94000244
H     3.33216429  30.92063904  57.25515747
H     8.40999985  30.17999840  55.75000000
H     9.48999977  32.72999954  59.81999969
H     7.18999958  32.36999893  60.65999985
H     5.09999990  31.35000038  60.40999985
H     6.00000000  30.43999863  56.19999695
H    14.28999996  31.61000061  55.90999985
H     3.42000008  30.23999977  58.92000198
H     4.00000000  29.30000114  57.50999832
S    11.09000015  28.95999908  52.56000137
C     8.51000023  28.22999954  53.30999756
C     9.86999989  28.12000084  53.53000259
C    10.46000004  27.56999969  54.71000290
C     9.56999969  27.11000061  55.66999817
C     8.17000008  27.18000031  55.52000046
C     7.31999969  26.65999985  56.53999710
C     5.96000004  26.76000214  56.38000107
C     5.42999983  27.32999992  55.19000244
C     6.21999979  27.67999840  54.12000275
C     7.63000011  27.70000076  54.29000092
C    11.90000057  27.72999954  54.81999969
C    12.35000038  28.54999924  53.75000000
C    13.59000015  29.15999985  53.72000122
C     3.96000004  27.70000076  55.17000198
H     3.45458269  27.40102005  54.25170898
H     8.17000008  28.72999954  52.41000366
H    10.07999992  26.75000000  56.56000137
H     7.86000013  26.35999870  57.43000031
H     5.23999977  26.42999840  57.12999725
H     5.91000032  27.98000145  53.11999893
H    13.89000034  29.79000092  52.88000107
H     3.49000001  27.20000076  56.02000427
H     4.00000000  28.78999901  55.34000015
S    15.25000000  27.95999908  57.12999725
C    17.86000061  28.71999931  56.23000336
C    16.48999977  28.71000099  56.10000229
C    15.93000031  29.23999977  54.89999771
C    16.75000000  29.75000000  53.90999603
C    18.15999985  29.68000031  54.02999878
C    19.10000038  30.13999939  53.06000137
C    20.46999931  30.19000053  53.25000000
C    21.01000023  29.56000137  54.40000153
C    20.17000008  29.10000038  55.38999939
C    18.76000023  29.14999962  55.22999573
C    14.52000046  28.92000008  54.73999786
C    14.04999924  28.16999817  55.84999847
C    12.81000042  27.55000114  55.86999893
C    22.50999832  29.47999954  54.48999786
H    22.98541451  29.99089432  55.32729340
H    18.27999878  28.25000000  57.11999893
H    16.39999962  29.87999916  52.88999939
H    18.71000099  30.56999969  52.15000153
H    21.18999863  30.51000214  52.50000000
H    20.65999985  28.78999901  56.31999969
H    12.48999977  27.06000137  56.79000092
H    22.95999908  29.89000130  53.57999802
H    22.70999908  28.40999985  54.66999817
