96

S    15.88999939  32.99000168  60.54999924
C    18.54999924  33.36000061  59.68000031
C    17.27000046  32.92000198  59.43999863
C    16.79999924  32.54000092  58.13999939
C    17.72999954  32.57999802  57.11999893
C    19.04000092  33.08000183  57.32999802
C    19.93000031  33.23999786  56.23000336
C    21.18000031  33.79000092  56.38000107
C    21.65999985  34.15000153  57.67000198
C    20.79999924  34.05999756  58.74000168
C    19.48999977  33.48999786  58.62999725
C    15.39000034  32.15999985  58.11000061
C    14.75000000  32.30999756  59.36000061
C    13.38000107  32.16999817  59.50000000
C    23.03999901  34.64999771  58.00000000
H    23.59913063  33.89976883  58.55913544
H    18.81000137  33.54999924  60.72000122
H    17.34000015  32.27000046  56.14999771
H    19.61000061  32.81999969  55.27999878
H    21.90000153  33.77000046  55.56999969
H    21.14000130  34.41999817  59.69999695
H    12.84999943  32.31999969  60.44000244
H    23.59000015  34.81999969  57.06999969
H    23.01000214  35.65999985  58.41999817
S    12.18000031  31.19999886  55.83000183
C     9.52999973  30.76000023  56.81000137
C    10.81999969  31.21999931  56.97000122
C    11.18999958  31.73000145  58.26000214
C    10.26000023  31.91999817  59.26000214
C     8.93000031  31.47000122  59.13000107
C     7.96999979  31.47999954  60.19000244
C     6.74000025  30.92000008  59.93999863
C     6.35999966  30.39999962  58.68000031
C     7.27999973  30.38000107  57.65999603
C     8.60000038  30.84000015  57.88000107
C    12.64000034  31.90999985  58.34000015
C    13.30999947  31.70000076  57.11000061
C    14.68000031  31.84999847  56.93999863
C     5.00000000  29.75000000  58.47000122
H     4.40121031  30.09929466  57.62884521
H     9.21000004  30.26000023  55.90000153
H    10.52999973  32.34999847  60.22999573
H     8.27999973  31.71999931  61.19999695
H     6.05000019  30.86000061  60.77999878
H     7.09999990  29.76000023  56.77999878
H    15.14000034  31.71999931  55.97000122
H     4.42999983  29.97999954  59.38000107
H     5.05000019  28.65999985  58.54999924
S    15.84000015  33.93000031  53.87000275
C    18.37000084  34.34999847  52.81000137
C    17.13999939  33.75999832  52.68000031
C    16.65999985  33.18999863  51.45000076
C    17.53000069  33.23999786  50.37000275
C    18.76000023  33.93000031  50.45000076
C    19.73999977  33.72999954  49.43000031
C    21.02999878  34.17000198  49.59000015
C    21.40999985  34.86999893  50.76000214
C    20.52999878  35.00999832  51.81000137
C    19.19999886  34.52999878  51.68000031
C    15.22999954  32.93999863  51.47999573
C    14.67000008  33.18000031  52.76000214
C    13.32999992  32.93000031  53.02999878
C    22.86999893  35.20000076  51.00999832
H    23.42061234  34.54927826  51.68932343
H    18.56999969  34.70999908  53.81999969
H    17.38999939  32.50999832  49.56999969
H    19.37000084  33.23999786  48.53000259
H    21.86000061  33.91999817  48.93000031
H    20.85000038  35.38000107  52.77999878
H    12.84000015  33.09999847  53.97999573
H    23.45000076  35.23999786  50.07999802
H    22.78000069  36.22000122  51.42000198
S    11.82000065  32.00999832  49.45999908
C     9.30999947  31.42000008  50.52000046
C    10.57000065  31.94999886  50.70999908
C    10.98999977  32.29999924  52.02999878
C    10.17000008  32.06999969  53.11999893
C     8.86999989  31.53000069  52.95000076
C     7.88999987  31.65999985  53.96999741
C     6.65000010  31.09999847  53.75000000
C     6.30999994  30.42000008  52.55000305
C     7.26999998  30.36000061  51.56999969
C     8.52000046  31.04000092  51.63999939
C    12.42000008  32.54000092  52.04000092
C    12.98999977  32.34999847  50.75000000
C    14.34000015  32.52999878  50.47999954
C     4.86000013  30.07999802  52.29000092
H     4.51934004  30.64776802  51.42415619
H     9.02000046  31.02999878  49.54999924
H    10.51000023  32.45999908  54.08000183
H     8.09000015  32.06999969  54.95999908
H     5.82999992  31.05999947  54.45999908
H     6.85999966  30.22999954  50.56999969
H    14.81999969  32.43000031  49.51000214
H     4.30999994  30.22000122  53.22999954
H     4.94000006  29.02000046  52.04999924
