96

S    15.40999985  32.84000015  60.38999939
C    17.95999908  33.44000244  59.41999817
C    16.76000023  32.80999756  59.23999786
C    16.36999893  32.21999741  57.98999786
C    17.31999969  32.14999771  56.97999954
C    18.57999992  32.78000259  57.14000320
C    19.60000038  32.80999756  56.13999939
C    20.82999992  33.38999939  56.36000061
C    21.15999985  33.93000031  57.63000107
C    20.19000053  34.02000046  58.60000229
C    18.94000053  33.36000061  58.40000153
C    14.94999981  31.93000031  57.95999908
C    14.27999973  32.22999954  59.16999817
C    12.89999962  32.06999969  59.27999878
C    22.53999901  34.43999863  57.97000122
H    23.08752441  33.72893143  58.58862686
H    18.12000084  33.93000031  60.38000107
H    16.98999977  31.68000031  56.05999756
H    19.27000046  32.52999878  55.13999939
H    21.42999840  33.52999878  55.47000122
H    20.38000107  34.47999954  59.56999969
H    12.51000023  32.21999741  60.27999878
H    23.02999878  34.76000214  57.04000092
H    22.27999878  35.31999969  58.56999969
S    11.67000008  31.09999847  55.63000107
C     9.03999996  30.55999947  56.58000183
C    10.31000042  31.07000160  56.77000046
C    10.71000004  31.55999947  58.04999924
C     9.77999973  31.61000061  59.06999969
C     8.46000004  31.11999893  58.92000198
C     7.44999981  31.30000114  59.91000366
C     6.17999983  30.86999893  59.61000061
C     5.88000011  30.05000114  58.47999954
C     6.88000011  29.84999847  57.56000137
C     8.11999989  30.53999901  57.64999771
C    12.15000057  31.77000046  58.13000107
C    12.81999969  31.54000092  56.90999985
C    14.21000004  31.52000046  56.84000015
C     4.42999983  29.69000053  58.22999954
H     3.97579551  30.27195168  57.42804337
H     8.80000019  30.13999939  55.59999847
H    10.07999992  32.02000046  60.02999878
H     7.68000031  31.77999878  60.86000061
H     5.38000011  31.05999947  60.31999969
H     6.72999954  29.34000015  56.60999680
H    14.75999928  31.11000061  56.00000000
H     3.86999989  29.61999893  59.16999817
H     4.42999983  28.71999931  57.72999573
S    11.97000027  28.97999954  52.49000168
C     9.40999985  28.16999817  53.23999786
C    10.76000023  28.16999817  53.50000000
C    11.39000034  27.60999870  54.65999985
C    10.53999996  26.98999786  55.56999969
C     9.15999985  26.86000061  55.30000305
C     8.32999992  26.22999954  56.27999878
C     6.97000027  26.31999969  56.13999939
C     6.37000036  26.94000053  55.00999832
C     7.14999962  27.65000153  54.13000107
C     8.56000042  27.53000069  54.16999817
C    12.81999969  27.84000015  54.75000000
C    13.27000046  28.57999992  53.62999725
C    14.55999947  29.11000061  53.54000092
C     4.88000011  27.20999908  54.93000031
H     4.43392086  26.78516197  54.03076172
H     8.97000027  28.77000046  52.43999863
H    10.90999985  26.71999931  56.56000137
H     8.78999996  25.82999992  57.18000031
H     6.30999994  26.01000023  56.95000076
H     6.65000010  28.31000137  53.43000031
H    14.84000015  29.79000092  52.75000000
H     4.48000002  26.83000183  55.86999893
H     4.75000000  28.29999924  54.93000031
S    16.34000015  27.67000008  56.84999847
C    18.77000046  28.78000069  56.06999969
C    17.43000031  28.61000061  55.81999969
C    16.79000092  29.18000031  54.66999817
C    17.60000038  29.73999977  53.69999695
C    19.01000023  29.73999977  53.86000061
C    19.90999985  30.40999985  52.97999954
C    21.21000099  30.79000092  53.22999954
C    21.70999908  30.51000214  54.52999878
C    20.95999908  29.79000092  55.43000031
C    19.62000084  29.40999985  55.12000275
C    15.39999962  28.75999832  54.61000061
C    14.98000050  28.05999947  55.77000046
C    13.73000050  27.46000099  55.75000000
C    23.19000053  30.66999817  54.75999832
H    23.54057884  30.15486336  55.65433121
H    19.10000038  28.48999977  57.05999756
H    17.13000107  29.99000168  52.76000214
H    19.47000122  30.85000038  52.09000015
H    21.78999901  31.40000153  52.54000092
H    21.31000137  29.46000099  56.39999771
H    13.48999977  26.70000076  56.49000168
H    23.38000107  31.75000000  54.85000229
H    23.77000046  30.34000015  53.88000107
