96

S    15.19999981  33.45999908  60.18000031
C    17.88999939  33.63999939  59.34999847
C    16.59000015  33.27000046  59.09999847
C    16.25000000  32.78000259  57.80000305
C    17.21999931  32.76000214  56.81000137
C    18.52000046  33.27000046  57.04000092
C    19.51000023  33.09999847  56.04000092
C    20.81000137  33.47999954  56.29000092
C    21.18000031  33.79000092  57.62000275
C    20.25000000  34.05999756  58.60000229
C    18.89000130  33.75999832  58.34000015
C    14.81999969  32.49000168  57.75000000
C    14.11000061  32.90000153  58.90999603
C    12.74000072  32.68000031  59.01000214
C    22.65999985  33.97000122  57.88000107
H    22.95164299  33.52897644  58.83317566
H    18.02000046  34.15000153  60.30000305
H    16.95000076  32.25000000  55.89000320
H    19.40999985  32.47000122  55.14999771
H    21.61000061  33.18999863  55.61999893
H    20.45999908  34.36000061  59.62999725
H    12.25999928  32.95000076  59.94999695
H    23.31000137  33.70999908  57.04000092
H    22.78000069  35.06000137  57.88000107
S    11.56999969  31.22999954  55.56000137
C     8.93000031  30.95000076  56.35000229
C    10.19000053  31.42999840  56.63999939
C    10.52999973  32.11999893  57.84999847
C     9.55999947  32.36000061  58.81000137
C     8.31999969  31.70999908  58.59000397
C     7.36999989  31.61000061  59.64000320
C     6.10000038  31.11999893  59.40999985
C     5.75000000  30.52000046  58.16999817
C     6.71999979  30.34000015  57.22000122
C     7.96000004  31.02000046  57.37999725
C    11.97999954  32.27000046  57.90999985
C    12.69999981  31.94000053  56.73999786
C    14.06999969  32.09000015  56.63000107
C     4.30999994  30.10999870  57.95999908
H     3.83394837  30.89868164  57.37737274
H     8.75000000  30.17999840  55.59999847
H     9.80000019  32.75000000  59.79000092
H     7.63999987  32.11999893  60.56000137
H     5.32999992  31.53000069  60.05000305
H     6.38999987  29.79000092  56.33999634
H    14.63999939  31.98999786  55.72000122
H     3.70000005  30.03000069  58.87000275
H     4.32000017  29.20999908  57.35000229
S    15.39000034  33.95999908  54.08000183
C    17.95999908  34.15999985  53.22999954
C    16.72000122  33.61999893  52.95999908
C    16.25000000  33.16999817  51.68000031
C    17.12000084  33.31000137  50.61000061
C    18.44000053  33.75999832  50.84000015
C    19.42000008  33.80000305  49.80999756
C    20.66999817  34.29999924  50.06000137
C    21.07000160  34.83000183  51.31999969
C    20.10999870  34.87999725  52.30999756
C    18.81000137  34.33000183  52.11000061
C    14.85000038  32.77000046  51.76000214
C    14.23999977  33.23999786  52.95000076
C    12.86000061  33.20000076  53.11000061
C    22.49000168  35.26000214  51.59000015
H    22.94501495  34.54904175  52.27963257
H    18.17000008  34.50000000  54.23999786
H    16.92000008  32.78000259  49.68999863
H    19.20999908  33.38000107  48.82999802
H    21.47999954  34.25000000  49.33000183
H    20.43999863  35.04000092  53.33000183
H    12.51999950  33.58000183  54.06999969
H    23.06999969  35.28000259  50.65999985
H    22.52000046  36.29000092  51.95999908
S    11.47999954  31.86000061  49.61000061
C     8.89999962  31.48999977  50.50000000
C    10.19000053  31.84000015  50.83000183
C    10.65999985  32.20000076  52.12999725
C     9.68000031  32.25000000  53.09999847
C     8.34999943  31.84000015  52.84000015
C     7.32999992  32.02999878  53.81999969
C     6.10000038  31.45000076  53.64999771
C     5.75999975  30.81999969  52.43000031
C     6.65999985  30.79000092  51.38999939
C     7.95000029  31.37000084  51.53999710
C    12.05000019  32.62000275  52.11999893
C    12.64999962  32.27999878  50.87999725
C    14.02999973  32.33000183  50.70999908
C     4.33999968  30.29999924  52.29999924
H     3.77836370  30.86163521  51.55352020
H     8.71999931  31.11000061  49.50000000
H     9.85999966  32.59999847  54.10999680
H     7.59000015  32.63000107  54.68999863
H     5.26000023  31.57999992  54.33000183
H     6.38999987  30.38000107  50.43000031
H    14.52999973  32.13999939  49.77000427
H     3.84999990  30.29999924  53.27000046
H     4.40000010  29.25000000  51.97999954
