96

S    16.75000000  33.23999786  60.34999847
C    19.43000031  33.20000076  59.54999924
C    18.12999916  32.79000092  59.33000183
C    17.72999954  32.27000046  58.06000137
C    18.61999893  32.19000244  57.01000214
C    19.96999931  32.56999969  57.22000122
C    20.98999977  32.62000275  56.24000168
C    22.27000046  33.09000015  56.44000244
C    22.63999939  33.55999756  57.72999573
C    21.71999931  33.51000214  58.75000000
C    20.38000107  33.09999847  58.50000000
C    16.28999901  32.04000092  58.04999924
C    15.60999966  32.50000000  59.20999908
C    14.22999954  32.42000198  59.31999969
C    24.11000061  33.81999969  57.97000122
H    24.60831070  33.01558685  58.51102448
H    19.78999901  33.68999863  60.45000076
H    18.29000092  31.77000046  56.05999756
H    20.65000153  32.37999725  55.22999573
H    23.02999878  33.06999969  55.65999985
H    21.94000053  33.84000015  59.75999832
H    13.76000023  32.73999786  60.25000000
H    24.57999992  33.97000122  56.98999786
H    24.17000008  34.73999786  58.56999969
S    13.07000065  31.25999832  55.70999908
C    10.39000034  30.95999908  56.43000031
C    11.67000008  31.28999901  56.81000137
C    12.02000046  31.80999947  58.09000015
C    11.05000019  31.84000015  59.08000183
C     9.72000027  31.45000076  58.77999878
C     8.61999989  31.50000000  59.68000031
C     7.32999992  31.15999985  59.34999847
C     7.04999971  30.62999916  58.06000137
C     8.05000019  30.69999886  57.11999893
C     9.38000011  31.07000160  57.43000031
C    13.45000076  32.04999924  58.22000122
C    14.14999962  31.73000145  57.02999878
C    15.53999996  31.68999863  56.91999817
C     5.68000031  30.05000114  57.81000137
H     5.08335018  30.63954735  57.11391068
H    10.21000004  30.52999878  55.45000076
H    11.26000023  32.21999741  60.07999802
H     8.82999992  32.00999832  60.61000061
H     6.60000038  31.31000137  60.13999939
H     7.82000017  30.26000023  56.14999771
H    16.03000069  31.42999840  55.98999786
H     5.13000011  29.84000015  58.73000336
H     5.84999990  29.02000046  57.44999695
S    16.45000076  33.29000092  53.95999908
C    19.15999985  33.34000015  53.29999924
C    17.86999893  33.02000046  52.93000031
C    17.45000076  32.72999954  51.59000015
C    18.39999962  32.63000107  50.59000015
C    19.75000000  32.86999893  50.93999863
C    20.79000092  32.97000122  49.97000122
C    22.04999924  33.45999908  50.21999741
C    22.36999893  33.95000076  51.51000214
C    21.40000153  33.88999939  52.49000168
C    20.12000084  33.31999969  52.25000000
C    16.00000000  32.68000031  51.46999741
C    15.29000092  33.08000183  52.63000107
C    13.92000008  32.95999908  52.77999878
C    23.72999954  34.52999878  51.81999969
H    24.35580635  33.85441208  52.40313721
H    19.40999985  33.81000137  54.25000000
H    18.06999969  32.27999878  49.61999893
H    20.45000076  32.76000214  48.95999908
H    22.73999977  33.62999725  49.40000153
H    21.70000076  34.29999924  53.44999695
H    13.43999958  33.06000137  53.75000000
H    24.28999901  35.02000046  51.02000427
H    23.51000023  35.30999756  52.56000137
S    12.79000092  31.57999992  49.27999878
C    10.06999969  31.35000038  50.01999664
C    11.36999989  31.70999908  50.33000183
C    11.68000031  32.29999924  51.59999847
C    10.72000027  32.47000122  52.56999969
C     9.39999962  32.04999924  52.25999832
C     8.40999985  32.04999924  53.27999878
C     7.18999958  31.47999954  53.02000046
C     6.86999989  30.78000069  51.81999969
C     7.76999998  30.88999939  50.77999878
C     9.03999996  31.50000000  50.97999954
C    13.10999966  32.56999969  51.70000076
C    13.83999920  32.30999756  50.51000214
C    15.21999931  32.27999878  50.38000107
C     5.52999973  30.12000084  51.62000275
H     4.96343136  30.53076172  50.78431320
H     9.92999935  30.71000099  49.15999985
H    11.03999996  32.65999985  53.59000397
H     8.69999981  32.38999939  54.27000046
H     6.34999990  31.57999992  53.69999695
H     7.53000021  30.36000061  49.86000061
H    15.76000023  31.77000046  49.58000183
H     4.84000015  30.09000015  52.47000122
H     5.72000027  29.07999992  51.31000137
