96

S    15.06999969  32.72999954  60.20000076
C    17.64999962  33.43000031  59.23999786
C    16.43000031  32.81999969  59.06000137
C    16.04999924  32.36000061  57.76000214
C    16.97999954  32.14999771  56.76000214
C    18.27000046  32.66999817  57.02999878
C    19.29000092  32.72999954  56.04000092
C    20.52999878  33.27999878  56.25000000
C    20.88999939  33.81999969  57.51999664
C    19.88999939  34.00000000  58.43999863
C    18.61999893  33.41999817  58.20999908
C    14.61999989  32.13000107  57.63999939
C    13.96999931  32.29000092  58.88999939
C    12.58999920  32.15999985  58.97999573
C    22.32000160  34.20000076  57.84000015
H    22.71282005  33.66433716  58.70420837
H    17.86000061  33.97999954  60.14999771
H    16.79000092  31.68999863  55.79999924
H    19.05999947  32.34000015  55.05000305
H    21.22999954  33.13000107  55.44000244
H    20.17000008  34.34000015  59.43999863
H    12.13000107  32.20999908  59.95999908
H    22.88999939  33.95999908  56.93000031
H    22.32999992  35.29999924  57.94000244
S    11.38000011  31.14000130  55.33000183
C     8.69000053  30.76999855  56.23000336
C    10.00000000  31.12999916  56.45000076
C    10.39999962  31.61000061  57.74000168
C     9.48999977  31.77000046  58.75999832
C     8.14999962  31.35999870  58.57999802
C     7.11999989  31.60000038  59.54999924
C     5.84000015  31.12999916  59.40000153
C     5.56999969  30.39999962  58.20999908
C     6.42000008  30.38999939  57.14000320
C     7.76000023  30.86999893  57.29000092
C    11.84000015  31.78999901  57.84999847
C    12.50000000  31.63000107  56.60999680
C    13.89000034  31.73000145  56.51000214
C     4.25000000  29.65999985  58.13000107
H     3.52438688  30.28601837  57.61068726
H     8.43999958  30.25000000  55.30000305
H     9.81000042  32.20000076  59.71000290
H     7.42000008  31.97999954  60.52000046
H     5.19999981  31.02000046  60.27000046
H     6.15999985  29.87999916  56.22000122
H    14.37999916  31.45000076  55.59000015
H     3.91999984  29.37000084  59.13999939
H     4.30999994  28.69999886  57.60000229
S    14.92000008  33.27999878  53.89999771
C    17.52000046  33.77999878  53.02000046
C    16.28999901  33.20000076  52.77000046
C    15.93000031  32.63999939  51.51000214
C    16.88999939  32.61000061  50.52000046
C    18.17000008  33.18000031  50.72999954
C    19.20999908  33.02999878  49.78000259
C    20.48999977  33.48999786  49.97000122
C    20.82999992  33.91999817  51.27999878
C    19.86999893  34.10000229  52.23999786
C    18.51000023  33.74000168  52.01000214
C    14.47999954  32.45999908  51.43000031
C    13.80000019  32.70000076  52.64999771
C    12.42000008  32.70000076  52.76000214
C    22.18000031  34.54999924  51.52999878
H    22.73847198  34.09176636  52.34622955
H    17.73999977  34.15000153  54.02000046
H    16.67000008  32.11000061  49.58000183
H    18.94000053  32.49000168  48.87000275
H    21.18999863  33.58000183  49.13999939
H    20.20999908  34.45999908  53.20999908
H    11.92999935  33.06000137  53.66000366
H    22.70999908  34.48999786  50.56999969
H    22.06000137  35.63999939  51.66999817
S    11.25000000  31.63999939  49.09999847
C     8.69000053  31.02000046  49.93999863
C     9.94999981  31.45999908  50.28999710
C    10.27999973  31.98999786  51.56999969
C     9.26999950  32.09999847  52.50999832
C     7.95000029  31.65999985  52.22000122
C     6.91999960  31.75000000  53.20000076
C     5.65999985  31.35000038  52.84000015
C     5.32000017  30.86999893  51.55000305
C     6.34000015  30.69000053  50.63999939
C     7.65999985  31.14999962  50.90999985
C    11.72000027  32.20999908  51.65999985
C    12.38000011  31.94999886  50.43000031
C    13.76000023  32.06000137  50.30000305
C     3.89999986  30.36999893  51.36000061
H     3.26203156  31.12847328  50.90633392
H     8.42000008  30.75000000  48.93000031
H     9.36999989  32.47000122  53.53000259
H     7.04999971  32.34999847  54.09999847
H     4.88000011  31.61999893  53.54000092
H     6.24000025  30.22999954  49.65999985
H    14.34999943  31.94999886  49.38999939
H     3.51000023  30.13999939  52.35000229
H     3.98000002  29.47999954  50.72999954
