96

S    14.44000053  33.22000122  60.33000183
C    17.13000107  33.45000076  59.48999786
C    15.82999992  33.06000137  59.25000000
C    15.40999985  32.56999969  57.97000122
C    16.35000038  32.43999863  56.95999908
C    17.70000076  32.81999969  57.18999863
C    18.64999962  32.92000198  56.13999939
C    19.93999863  33.34000015  56.33999634
C    20.34000015  33.61999893  57.67000198
C    19.47999954  33.55999756  58.75000000
C    18.11000061  33.29999924  58.47999954
C    13.96000004  32.50000000  57.88999939
C    13.25000000  32.79999924  59.08000183
C    11.87000084  32.81999969  59.15999985
C    21.80000114  33.93000031  57.88000107
H    22.20617294  33.52382660  58.80636215
H    17.53000069  33.88999939  60.40999985
H    16.02000046  32.07999802  55.98999786
H    18.26000023  32.66999817  55.14999771
H    20.56999969  33.54000092  55.47000122
H    19.67000008  33.97999954  59.73999786
H    11.39000034  33.13000107  60.08999634
H    22.34000015  33.56999969  56.98999786
H    21.96000099  35.02000046  57.83000183
S    10.81999969  31.83000183  55.45000076
C     8.10000038  31.56999969  56.11000061
C     9.36999989  31.93000031  56.46999741
C     9.72000027  32.29000092  57.81999969
C     8.78000069  32.27000046  58.83999634
C     7.46000004  31.87000084  58.52000427
C     6.43000031  31.97999954  59.48999786
C     5.13000011  31.68000031  59.15999985
C     4.80999994  31.28000069  57.83000183
C     5.75999975  31.38999939  56.84000015
C     7.11999989  31.67000008  57.12999725
C    11.13999939  32.54000092  58.00000000
C    11.87000084  32.30999756  56.81000137
C    13.25000000  32.29000092  56.70000076
C     3.38999987  30.89999962  57.50999832
H     3.00821066  31.42319107  56.63329697
H     7.90000010  31.14999962  55.13000107
H     8.97999954  32.68000031  59.81999969
H     6.71999979  32.43999863  60.44000244
H     4.33999968  31.65999985  59.89999771
H     5.40000010  31.21999931  55.83000183
H    13.73000050  32.27000046  55.72999954
H     2.75000000  31.21999931  58.34000015
H     3.35999990  29.82000160  57.35000229
S    14.68999958  34.10000229  53.87000275
C    17.36999893  34.15000153  53.15999985
C    16.11999893  33.61999893  52.93000031
C    15.76000023  33.02000046  51.68000031
C    16.77999878  32.79000092  50.77999878
C    18.11000061  33.22000122  51.02000427
C    19.04999924  33.06999969  49.95999908
C    20.36999893  33.32999802  50.24000168
C    20.69999886  34.03000259  51.43000031
C    19.75000000  34.38999939  52.36000061
C    18.40999985  33.94000244  52.22999954
C    14.32000065  33.09999847  51.45999908
C    13.59000015  33.59999847  52.56999969
C    12.20999908  33.45999908  52.62000275
C    22.13000107  34.50000000  51.63000107
H    22.64049339  34.01077652  52.45955276
H    17.63000107  34.64999771  54.09000015
H    16.50000000  32.56999969  49.75999832
H    18.81999969  32.69000244  48.95999908
H    21.14000130  33.09000015  49.52000046
H    19.96000099  35.11000061  53.15000153
H    11.64999962  33.74000168  53.50999832
H    22.67000008  34.47999954  50.66999817
H    22.07999992  35.56999969  51.84000015
S    11.17000008  31.88999939  49.15000153
C     8.39999962  31.87999916  49.82999802
C     9.70000076  32.22999954  50.10000229
C    10.07999992  32.81999969  51.35000229
C     9.13000011  33.01000214  52.32999802
C     7.76999998  32.66999817  52.12999725
C     6.71999979  32.90000153  53.06000137
C     5.40999985  32.63999939  52.75000000
C     5.05999994  32.04000092  51.51000214
C     6.06999969  31.83000183  50.59999847
C     7.42999983  32.16999817  50.81999969
C    11.51999950  33.00000000  51.49000168
C    12.27000046  32.55000305  50.37000275
C    13.66000080  32.65000153  50.31000137
C     3.63000011  31.64999962  51.19999695
H     3.04538012  32.52693176  50.92194748
H     8.06999969  31.37000084  48.93000031
H     9.36999989  33.41999817  53.30999756
H     6.98999977  33.25000000  54.06000137
H     4.65000010  32.84000015  53.48999786
H     5.77000046  31.42999840  49.62999725
H    14.28999996  32.29999924  49.51000214
H     3.07000017  31.17000198  52.01000214
H     3.74000025  30.89999962  50.40999985
