96

S    14.75999928  33.45000076  60.13000107
C    17.38000107  33.70999908  59.31000137
C    16.13999939  33.15999985  59.06000137
C    15.77999973  32.61000061  57.78999710
C    16.76000023  32.45999908  56.81999969
C    18.09999847  32.86999893  57.05999756
C    19.19000053  32.68000031  56.16000366
C    20.48000145  33.04999924  56.43000031
C    20.71000099  33.77000046  57.63999939
C    19.70999908  33.90999985  58.56999969
C    18.36000061  33.55999756  58.29000092
C    14.40000057  32.16999817  57.88000107
C    13.67000008  32.62000275  59.00000000
C    12.28000069  32.55000305  59.13000107
C    21.98999786  34.52000046  57.90999985
H    22.61810684  34.02750397  58.65230942
H    17.56000137  34.25000000  60.22999573
H    16.57999992  32.15999985  55.79999924
H    18.97999954  32.27999878  55.17000198
H    21.27000046  33.11999893  55.68999863
H    19.98999977  34.22999954  59.56999969
H    11.68000031  33.02000046  59.88999939
H    22.62000084  34.66999817  57.02000046
H    21.57999992  35.47999954  58.23999786
S    11.23999977  31.11999893  55.54000092
C     8.55000019  31.00000000  56.27999878
C     9.82999992  31.40000153  56.58000183
C    10.14000034  31.88999939  57.88999939
C     9.11000061  32.26000214  58.74000168
C     7.78999996  31.81999969  58.47000122
C     6.84999990  31.63999939  59.52000046
C     5.61999989  31.07000160  59.29999924
C     5.27999973  30.68000031  57.97999954
C     6.19999981  30.71000099  56.95999908
C     7.49000025  31.25999832  57.18000031
C    11.57999992  31.96000099  58.06999969
C    12.28999996  31.54999924  56.90999985
C    13.67000008  31.61000061  56.81999969
C     3.97000027  29.94999886  57.77999878
H     3.40782619  30.44812965  56.99010849
H     8.27999973  30.66999817  55.27999878
H     9.30000019  32.59999847  59.75000000
H     7.18999958  31.84000015  60.54000092
H     4.94000006  30.86000061  60.13000107
H     5.98000002  30.15999985  56.04000092
H    14.09999943  31.47999954  55.83000183
H     3.32999992  29.93999863  58.68000031
H     4.02999973  28.85999870  57.64999771
S    11.03000069  29.13999939  52.44999695
C     8.46000004  28.51000023  53.36999893
C     9.81999969  28.45999908  53.55999756
C    10.47000027  27.90999985  54.72000122
C     9.63999939  27.43999863  55.72000122
C     8.23000050  27.43000031  55.59000015
C     7.37999964  26.67000008  56.43000031
C     6.01000023  26.56999969  56.30000305
C     5.45000029  27.13999939  55.13000107
C     6.24000025  27.88000107  54.27000046
C     7.63999987  28.05000114  54.43000031
C    11.90999985  28.12000084  54.77000427
C    12.32999992  28.85000038  53.62999725
C    13.59000015  29.43000031  53.55999756
C     4.07999992  26.64999962  54.73999786
H     3.73851275  27.06974411  53.79379272
H     8.01999950  28.77000046  52.41000366
H    10.11999989  26.83000183  56.49000168
H     7.82000017  26.09999847  57.23999786
H     5.42000008  25.94000053  56.95999908
H     5.88000011  28.36999893  53.36999893
H    13.66000080  30.17000008  52.77999878
H     4.09000015  25.55000114  54.72000122
H     3.42999983  26.90000153  55.59000015
S    15.32999992  27.92000008  56.79999924
C    17.88999939  28.85999870  56.10000229
C    16.54999924  28.75000000  55.81999969
C    15.95999908  29.31999969  54.64000320
C    16.80999947  29.90999985  53.72000122
C    18.20000076  30.06999969  53.92000198
C    19.18000031  30.51000214  52.98999786
C    20.51000214  30.62000084  53.30999756
C    21.02000046  30.05000114  54.50000000
C    20.12000084  29.43000031  55.33000183
C    18.71000099  29.48999786  55.13000107
C    14.51000023  29.17000008  54.58000183
C    14.02999973  28.45999908  55.70999908
C    12.75000000  27.95000076  55.87999725
C    22.50999832  29.80999947  54.65999985
H    22.99337196  30.41421509  55.42770767
H    18.35000038  28.36999893  56.95999908
H    16.38000107  30.15000153  52.75000000
H    18.84000015  30.59999847  51.95999908
H    21.15999985  30.96999931  52.50999832
H    20.36999893  28.90000153  56.24000168
H    12.46000099  27.55000114  56.84000015
H    23.00000000  30.05000114  53.70999908
H    22.59000015  28.74000168  54.88999939
