96

S    14.86999989  32.93000031  60.22999573
C    17.48999977  33.36000061  59.22000122
C    16.18000031  32.95999908  59.03999710
C    15.80000019  32.34000015  57.81000137
C    16.68000031  32.33000183  56.73999786
C    17.97999954  32.86999893  56.88000107
C    18.96999931  32.99000168  55.86000061
C    20.22000122  33.52999878  56.04000092
C    20.58000183  34.05999756  57.30999756
C    19.68000031  34.01000214  58.34999847
C    18.43000031  33.36000061  58.15999985
C    14.37999916  32.02000046  57.81000137
C    13.71999931  32.31999969  59.02000046
C    12.34000015  32.25000000  59.16999817
C    21.97999954  34.56000137  57.54000092
H    22.48588181  34.12537003  58.40213776
H    17.76000023  33.90000153  60.12000275
H    16.31000137  31.88999939  55.81999969
H    18.60000038  32.76000214  54.86999893
H    21.00000000  33.46999741  55.27999878
H    19.86999893  34.43000031  59.33000183
H    11.98999977  32.70000076  60.08999634
H    22.63999939  34.54999924  56.65999985
H    21.97000122  35.63000107  57.76000214
S    11.05000019  31.09999847  55.59999847
C     8.40999985  30.72999954  56.36000061
C     9.65999985  31.18999863  56.70999908
C    10.11999989  31.64999962  57.97999954
C     9.18000031  31.61999893  58.99000168
C     7.88999987  31.07999992  58.73000336
C     6.96000004  30.82999992  59.77000427
C     5.68000031  30.35000038  59.61000061
C     5.31000042  29.90999985  58.30999756
C     6.19999981  30.03000069  57.27000427
C     7.48000050  30.62000084  57.43000031
C    11.56000042  31.84000015  58.06999969
C    12.22000027  31.56999969  56.84999847
C    13.60000038  31.63999939  56.70000076
C     3.94000006  29.28999901  58.13000107
H     3.28373432  29.98193169  57.60213470
H     8.14000034  30.40999985  55.35999680
H     9.51000023  31.88999939  59.98000336
H     7.20000029  31.15999985  60.77999878
H     5.09000015  30.40999985  60.52000046
H     5.89999962  29.56999969  56.32999802
H    14.06999969  31.37000084  55.76000214
H     3.58999991  28.95999908  59.12000275
H     4.03999996  28.32999992  57.60000229
S    10.90999985  28.61999893  52.47000122
C     8.32999992  28.29999924  53.41999817
C     9.68000031  28.22000122  53.68000031
C    10.26999950  27.86999893  54.93999863
C     9.39000034  27.43999863  55.91999817
C     7.99000025  27.43000031  55.73999786
C     7.05999947  26.87000084  56.65999985
C     5.75000000  26.70000076  56.27999878
C     5.26999998  27.11999893  55.00999832
C     6.11999989  27.67000008  54.06999969
C     7.49000025  27.76000023  54.43000031
C    11.71000004  28.02999878  54.87999725
C    12.22000027  28.57999992  53.67000198
C    13.53000069  29.05999947  53.61000061
C     3.77999997  27.11000061  54.73999786
H     3.51647282  26.35503006  53.99927139
H     7.86999989  28.72999954  52.54000092
H     9.81999969  27.10000038  56.86000061
H     7.40999985  26.65999985  57.67000198
H     5.05000019  26.38999939  57.04999924
H     5.77000046  28.09999847  53.13999939
H    14.01999950  29.40000153  52.70000076
H     3.19000006  27.04000092  55.65999985
H     3.61000013  28.09000015  54.27999878
S    15.05000019  28.21000099  57.22999954
C    17.64999962  28.97000122  56.38999939
C    16.29999924  28.85999870  56.13999939
C    15.76000023  29.20000076  54.86000061
C    16.52000046  29.79000092  53.87000275
C    17.92000008  29.86999893  54.05000305
C    18.73999977  30.38000107  53.01000214
C    20.07999802  30.55000114  53.26000214
C    20.65000153  30.13999939  54.50000000
C    19.86999893  29.44000053  55.38999939
C    18.45000076  29.40000153  55.30000305
C    14.32999992  28.95000076  54.75000000
C    13.85000038  28.31999969  55.93000031
C    12.57999992  27.76000023  55.94999695
C    22.13000107  30.35000038  54.71000290
H    22.44997978  30.57754135  55.72682953
H    18.15000153  28.65999985  57.29999924
H    16.09000015  30.13999939  52.93000031
H    18.26000023  30.72999954  52.09999847
H    20.65000153  30.96999931  52.43999863
H    20.31999969  29.18000031  56.35000229
H    12.15000057  27.30999947  56.83000183
H    22.40999985  31.14000130  53.99000168
H    22.60999870  29.47000122  54.25000000
