96

S    16.07999992  32.84000015  60.33000183
C    18.70000076  33.01000214  59.55999756
C    17.46000099  32.47999954  59.27999878
C    17.11000061  31.90000153  58.02000046
C    18.02999878  32.09999847  57.01000214
C    19.26000023  32.76000214  57.22000122
C    20.27000046  32.78000259  56.20999908
C    21.54999924  33.18999863  56.50000000
C    21.87000084  33.65999985  57.80000305
C    20.93000031  33.77000046  58.79000092
C    19.63999939  33.23999786  58.52000427
C    15.65999985  31.77000046  57.85999680
C    15.03000069  32.25000000  59.02999878
C    13.64999962  32.37999725  59.13000107
C    23.26999855  34.17000198  58.08000183
H    23.71834564  33.65048981  58.92687607
H    19.01000023  33.13000107  60.59999847
H    17.80999947  31.55999947  56.09000397
H    20.06000137  32.43000031  55.20000076
H    22.20000076  33.27000046  55.63000107
H    21.24000168  34.11000061  59.78000259
H    13.19000053  32.78000259  60.02999878
H    23.82999802  34.10000229  57.14000320
H    23.09000015  35.20999908  58.37999725
S    12.35999966  31.27000046  55.51000214
C     9.72999954  30.95000076  56.44000244
C    11.00999928  31.40999985  56.65000153
C    11.46999931  31.87999916  57.91999817
C    10.53999996  32.13000107  58.90999603
C     9.17000008  31.80999947  58.69999695
C     8.11999989  32.04000092  59.62999725
C     6.80000019  31.70999908  59.41999817
C     6.51000023  30.86999893  58.30999756
C     7.48000050  30.61000061  57.37999725
C     8.78000069  31.17000198  57.47000122
C    12.90999985  32.06000137  57.97999954
C    13.53999996  31.64999962  56.77999878
C    14.93000031  31.59000015  56.68000031
C     5.15999985  30.20000076  58.15999985
H     4.43538857  30.67597008  57.49932480
H     9.48000050  30.22000122  55.66999817
H    10.88999939  32.56000137  59.85000229
H     8.36999989  32.43999863  60.61000061
H     6.06999969  31.88999939  60.20000076
H     7.25000000  30.03000069  56.47999573
H    15.42000008  31.42999840  55.72999954
H     4.72000027  30.03000069  59.15000153
H     5.36000013  29.27000046  57.61000061
S    12.23000050  29.07999992  52.49000168
C     9.61999989  28.45000076  53.30999756
C    10.97000027  28.40999985  53.54999924
C    11.52999973  27.90999985  54.77000427
C    10.69000053  27.44999886  55.77000046
C     9.31999969  27.29999924  55.47000122
C     8.39999962  26.78999901  56.43000031
C     7.04999971  26.78999901  56.20999908
C     6.51999998  27.44999886  55.06000137
C     7.36000013  27.78000069  54.02999878
C     8.76000023  27.85000038  54.26000214
C    12.96000004  28.13999939  54.84000397
C    13.52000046  28.68000031  53.64999771
C    14.84000015  29.11000061  53.59000397
C     5.03000021  27.70999908  54.97000122
H     4.55431223  27.17751503  54.14642334
H     9.22999954  29.02000046  52.45999908
H    11.03000069  27.30999947  56.79999924
H     8.89000034  26.53000069  57.36999893
H     6.34999990  26.37000084  56.93000031
H     6.85999966  28.35000038  53.25000000
H    15.17000008  29.30000114  52.56999969
H     4.53000021  27.39000130  55.89000320
H     4.85000038  28.78999901  54.93999863
S    16.47999954  27.84000015  56.97000122
C    19.03000069  28.62999916  56.14999771
C    17.67000008  28.68999863  55.97000122
C    17.02999878  29.27000046  54.81999969
C    17.86000061  29.97999954  53.96999741
C    19.27000046  30.00000000  54.09000015
C    20.10000038  30.71000099  53.18000031
C    21.47000122  30.66999817  53.33000183
C    21.98999786  29.90999985  54.40999985
C    21.25000000  29.20000076  55.31999969
C    19.84000015  29.18999863  55.13000107
C    15.60999966  28.97000122  54.75000000
C    15.14999962  28.23999786  55.86999893
C    13.81000042  27.86999893  55.91999817
C    23.47999954  30.07999802  54.65000153
H    23.77739334  29.95254517  55.69087219
H    19.51000023  28.25000000  57.04000092
H    17.43000031  30.61000061  53.18999863
H    19.68000031  31.34000015  52.39999771
H    22.11999893  31.32999802  52.77999878
H    21.70999908  28.88000107  56.25999832
H    13.42000008  27.22999954  56.70999908
H    23.67000198  31.09999847  54.31000137
H    24.06999969  29.37999916  54.05000305
