96

S    15.34999943  32.85000229  60.38999939
C    18.02999878  33.41999817  59.61000061
C    16.77000046  32.92000198  59.33000183
C    16.38000107  32.50999832  58.01000214
C    17.38999939  32.40999985  57.05999756
C    18.70000076  32.84000015  57.34000397
C    19.78000069  32.68000031  56.42000198
C    21.04999924  33.15000153  56.65000153
C    21.40000153  33.72000122  57.90000153
C    20.38999939  33.79000092  58.83999634
C    19.05999947  33.34999847  58.63999939
C    15.01000023  32.02999878  57.93000031
C    14.30999947  32.09999847  59.15999985
C    12.94000053  31.94999886  59.27999878
C    22.78000069  34.22000122  58.26000214
H    23.22857475  33.65750122  59.07882690
H    18.22000122  33.86000061  60.58000183
H    17.26000023  31.87999916  56.11999893
H    19.45000076  32.25000000  55.47000122
H    21.71999931  33.11999893  55.79999924
H    20.65000153  34.15000153  59.82999802
H    12.48999977  32.11000061  60.26000214
H    23.42000008  34.18999863  57.36000061
H    22.62000084  35.26000214  58.55999756
S    11.85999966  30.90999985  55.61999893
C     9.27999973  30.22999954  56.36000061
C    10.44000053  30.90999985  56.68000031
C    10.77999973  31.31999969  58.01000214
C     9.81000042  31.27000046  58.99000168
C     8.50000000  30.86999893  58.64999771
C     7.39000034  31.12999916  59.51000214
C     6.11999989  30.79000092  59.10999680
C     5.93999958  30.03000069  57.93000031
C     7.00999975  29.70999908  57.11999893
C     8.30999947  30.20999908  57.38999939
C    12.20000076  31.61000061  58.13999939
C    12.94000053  31.44000053  56.93000031
C    14.32000065  31.48999977  56.84000015
C     4.55999994  29.47999954  57.63999939
H     3.98437738  30.20485687  57.06437683
H     9.01000023  29.84999847  55.38000107
H    10.08999920  31.57999992  60.00000000
H     7.63000011  31.63999939  60.44000244
H     5.26999998  31.04000092  59.72999954
H     6.78999996  29.10000038  56.24000168
H    14.85000038  31.40000153  55.90000153
H     4.21000004  29.36000061  58.67000198
H     4.67999983  28.55999947  57.04000092
S    15.01000023  33.15999985  54.05000305
C    17.57999992  33.68000031  53.15000153
C    16.31000137  33.23999786  52.84999847
C    15.98000050  32.78000259  51.52999878
C    16.92000008  32.84000015  50.52000046
C    18.22999954  33.32999802  50.73999786
C    19.23999977  33.34999847  49.73999786
C    20.50000000  33.77999878  50.06999969
C    20.76000023  34.41999817  51.31000137
C    19.80999947  34.29999924  52.29999924
C    18.53000069  33.69999695  52.09999847
C    14.55000019  32.50999832  51.50000000
C    13.89999962  32.66999817  52.75000000
C    12.51999950  32.70999908  52.88999939
C    22.14999962  34.90000153  51.65000153
H    22.63905907  34.29753494  52.41548157
H    17.88999939  34.15999985  54.08000183
H    16.64999962  32.63999939  49.48999786
H    19.00000000  33.01000214  48.73000336
H    21.24000168  33.46999741  49.34000015
H    20.07999802  34.61999893  53.29999924
H    12.00000000  32.84000015  53.82999802
H    22.73999977  34.77999878  50.72999954
H    22.13000107  35.95999908  51.90999985
S    11.28999901  31.63999939  49.22999954
C     8.76999950  30.86000061  50.21999741
C    10.00000000  31.42999840  50.43000031
C    10.31999969  32.00999832  51.70000076
C     9.43000031  32.13000107  52.75000000
C     8.15999985  31.54000092  52.56000137
C     7.20000029  31.63999939  53.60000229
C     5.93999958  31.11000061  53.43999863
C     5.53999996  30.65999985  52.15999985
C     6.48000002  30.50000000  51.16000366
C     7.83999968  30.93000031  51.29000092
C    11.72999954  32.36000061  51.79000092
C    12.36999989  32.16999817  50.54000092
C    13.75000000  32.26000214  50.38000107
C     4.09999990  30.27000046  51.93999863
H     3.60036588  30.88383484  51.19055176
H     8.56999969  30.35000038  49.27999878
H     9.59999943  32.50999832  53.75999832
H     7.35000038  32.21999741  54.51000214
H     5.17000008  31.35000038  54.15999985
H     6.25999975  30.17999840  50.14999771
H    14.23999977  32.09000015  49.43000031
H     3.68999982  30.26000023  52.95000076
H     4.05999994  29.23999977  51.56999969
