96

S    16.05999947  32.90000153  60.35999680
C    18.70000076  33.43000031  59.47000122
C    17.43999863  32.93999863  59.23999786
C    17.05999947  32.44999695  57.95000076
C    17.98999977  32.31999969  56.93999863
C    19.29999924  32.81999969  57.11000061
C    20.23999977  32.66999817  56.04999924
C    21.54999924  33.00000000  56.31999969
C    21.90999985  33.44000244  57.62000275
C    21.01000023  33.58000183  58.66000366
C    19.63000107  33.38000107  58.40000153
C    15.62999916  32.20000076  57.84999847
C    14.93000031  32.47000122  59.06000137
C    13.55000019  32.43000031  59.20999908
C    23.36000061  33.81999969  57.84000015
H    23.85898018  33.17132568  58.55995941
H    18.97999954  33.70999908  60.47999954
H    17.70000076  31.80999947  56.02000427
H    19.86999893  32.25000000  55.12000275
H    22.34999847  32.90000153  55.59999847
H    21.38000107  33.80000305  59.65999985
H    13.04999924  32.79000092  60.11000061
H    23.88000107  33.77999878  56.86999893
H    23.54999924  34.84999847  58.15000153
S    12.36999989  31.01000023  55.68000031
C     9.68999958  30.96999931  56.43000031
C    11.00000000  31.24000168  56.77999878
C    11.39000034  31.68000031  58.08000183
C    10.44999981  31.87999916  59.06999969
C     9.11999989  31.48999977  58.81000137
C     8.05999947  31.59000015  59.75000000
C     6.80000019  31.12999916  59.43999863
C     6.47000027  30.55000114  58.18999863
C     7.46999979  30.45999908  57.23999786
C     8.76000023  31.00000000  57.50000000
C    12.81999969  31.96000099  58.11000061
C    13.48999977  31.68000031  56.88999939
C    14.86999989  31.77999878  56.76000214
C     5.09000015  29.94999886  58.08000183
H     4.44626236  30.40981102  57.33015060
H     9.31999969  30.65000153  55.45999908
H    10.72000027  32.27000046  60.05000305
H     8.31999969  32.06000137  60.70000076
H     5.97000027  31.18999863  60.13999939
H     7.23999977  30.19000053  56.20999908
H    15.47000027  31.42000008  55.93000031
H     4.67999983  30.13000107  59.08000183
H     5.19999981  28.85999870  57.97000122
S    15.52000046  33.59000015  54.18000031
C    18.11000061  33.88000107  53.29000092
C    16.86000061  33.36999893  53.02999878
C    16.46000099  32.86000061  51.75000000
C    17.38999939  32.77000046  50.72999954
C    18.70000076  33.25000000  51.00000000
C    19.63999939  33.31999969  49.93000031
C    20.88999939  33.88000107  50.06000137
C    21.21000099  34.48999786  51.30000305
C    20.31999969  34.52999878  52.35000229
C    19.05999947  33.88000107  52.23999786
C    15.03000069  32.57999802  51.79999924
C    14.35999966  33.02999878  52.95999908
C    12.97000027  32.99000168  53.09000015
C    22.65000153  34.93999863  51.42000198
H    23.17597771  34.20078659  52.02416611
H    18.34000015  34.27999878  54.27999878
H    17.02999878  32.44999695  49.75999832
H    19.31999969  32.97999954  48.95000076
H    21.56999969  33.97000122  49.22999954
H    20.63999939  35.06999969  53.23999786
H    12.60000038  33.20999908  54.08000183
H    23.19999886  34.97000122  50.47999954
H    22.81999969  35.95000076  51.79999924
S    11.78999996  31.53000069  49.54999924
C     9.13000011  31.28999901  50.40999985
C    10.39999962  31.78999901  50.61999893
C    10.77000046  32.20999908  51.93999863
C     9.78999996  32.20000076  52.91999817
C     8.45000076  31.81999969  52.70000076
C     7.40999985  31.84999847  53.68000031
C     6.17000008  31.35999870  53.34000015
C     5.80999947  30.95999908  52.02000046
C     6.77999973  30.95000076  51.04999924
C     8.10999966  31.34000015  51.38999939
C    12.20000076  32.45999908  52.04000092
C    12.86999893  32.04999924  50.86000061
C    14.25000000  32.09000015  50.75000000
C     4.38000011  30.59999847  51.69000244
H     3.91813111  31.24661636  50.94390488
H     8.93999958  30.88999939  49.41999817
H    10.13000011  32.47999954  53.90999603
H     7.57000017  32.16999817  54.71000290
H     5.42999983  31.34000015  54.13000107
H     6.63999987  30.46999931  50.07999802
H    14.77000046  31.84000015  49.82999802
H     3.81000018  30.66999817  52.62000275
H     4.32999992  29.54999924  51.38000107
