96

S    15.82999992  32.83000183  60.44000244
C    18.54999924  33.06999969  59.64000320
C    17.25000000  32.68000031  59.38999939
C    16.80999947  32.18000031  58.11999893
C    17.79000092  32.18000031  57.14000320
C    19.04999924  32.79999924  57.25999832
C    20.03000069  32.73999786  56.24000168
C    21.31999969  33.13000107  56.55000305
C    21.63000107  33.84999847  57.72999573
C    20.69999886  33.90000153  58.75000000
C    19.43000031  33.29999924  58.55999756
C    15.38000011  31.94000053  58.01000214
C    14.67000008  32.36000061  59.16999817
C    13.28999996  32.47999954  59.22999954
C    23.05000114  34.29999924  58.01000214
H    23.57037926  33.62992477  58.69433212
H    18.64999962  33.43000031  60.65999985
H    17.56999969  31.68000031  56.19999695
H    19.71999931  32.11999893  55.40000153
H    22.14999962  32.81999969  55.91999817
H    21.11000061  34.18999863  59.72000122
H    12.89000034  32.81999969  60.18000031
H    23.52000046  34.22000122  57.02000046
H    23.18000031  35.30999756  58.40000153
S    12.05999947  30.89999962  55.77999878
C     9.46000004  30.55999947  56.70000076
C    10.71000004  31.11000061  56.90999985
C    11.09000015  31.81999969  58.09000015
C    10.10000038  32.06999969  59.02000046
C     8.78000069  31.57999992  58.82999802
C     7.73999977  31.76000214  59.78000259
C     6.50000000  31.19999886  59.62999725
C     6.19000006  30.52999878  58.40999985
C     7.11999989  30.38000107  57.41000366
C     8.43999958  30.85000038  57.63999939
C    12.53000069  32.04000092  58.13999939
C    13.20000076  31.53000069  57.00000000
C    14.57999992  31.47000122  56.95000076
C     4.84000015  29.86999893  58.22999954
H     4.21071434  30.49213409  57.59356689
H     9.19999981  29.90999985  55.86999893
H    10.44999981  32.52000046  59.93999863
H     8.02999973  32.30999756  60.68000031
H     5.73999977  31.31999969  60.40000153
H     6.90000010  29.77999878  56.52999878
H    15.05000019  31.14000130  56.03000259
H     4.44999981  29.70000076  59.23999786
H     4.92000008  28.87000084  57.78999710
S    12.11999989  28.88000107  52.64999771
C     9.57999992  28.12000084  53.41999817
C    10.93000031  28.03999901  53.66000366
C    11.44999981  27.50000000  54.87999725
C    10.57000065  27.07999992  55.84999847
C     9.17000008  27.06000137  55.63000107
C     8.32999992  26.70000076  56.72999954
C     6.97000027  26.76000214  56.53999710
C     6.48999977  27.34999847  55.34000015
C     7.26999998  27.78000069  54.29999924
C     8.67999935  27.60999870  54.40000153
C    12.88000011  27.79000092  54.93000031
C    13.36999989  28.59999847  53.88000107
C    14.65999985  29.11999893  53.94000244
C     5.01999950  27.69000053  55.20000076
H     4.56436491  27.31979752  54.28160858
H     9.19999981  28.72999954  52.60000229
H    10.92000008  26.77999878  56.84000015
H     8.76999950  26.47000122  57.69000244
H     6.26999950  26.61000061  57.36000061
H     6.84999990  28.16999817  53.37999725
H    14.96000099  29.69000053  53.06999969
H     4.57999992  27.23999977  56.09000397
H     4.74000025  28.75000000  55.33000183
S    16.36999893  27.55000114  57.19999695
C    18.89000130  28.29000092  56.26999664
C    17.53000069  28.50000000  56.25000000
C    16.87000084  29.23999977  55.20999908
C    17.64000130  29.82999992  54.22000122
C    19.04999924  29.75000000  54.31000137
C    19.88999939  30.42000008  53.36999893
C    21.25999832  30.40999985  53.44999695
C    21.87999916  29.72999954  54.52999878
C    21.11999893  29.01000023  55.41999817
C    19.70000076  28.97999954  55.33000183
C    15.51000023  28.75999832  54.99000168
C    15.10000038  27.84000015  55.98999786
C    13.75000000  27.49000168  55.98999786
C    23.36999893  29.51000023  54.66999817
H    23.81074715  29.90098763  55.58704376
H    19.32999992  27.88999939  57.16999817
H    17.14999962  30.20999908  53.33000183
H    19.40000153  30.98999977  52.57999802
H    21.84999847  30.85000038  52.64999771
H    21.47999954  28.38000107  56.23000336
H    13.30000019  26.90999985  56.77999878
H    23.87000084  29.90999985  53.77999878
H    23.45000076  28.42000008  54.61999893
