96

S    15.78999996  32.72000122  60.61000061
C    18.39999962  33.25999832  59.69999695
C    17.15999985  32.70000076  59.48999786
C    16.70999908  32.34999847  58.18000031
C    17.63000107  32.27999878  57.15000153
C    18.90999985  32.84000015  57.32999802
C    19.88000107  32.81999969  56.29000092
C    21.18999863  33.11000061  56.56999969
C    21.60000038  33.67000198  57.81999969
C    20.68000031  33.70999908  58.83999634
C    19.32999992  33.29999924  58.62999725
C    15.26000023  32.23999786  58.06000137
C    14.61999989  32.50999832  59.29000092
C    13.23999977  32.56000137  59.50000000
C    23.05000114  34.04000092  57.95000076
H    23.53259277  33.53611755  58.78744125
H    18.60999870  33.58000183  60.72000122
H    17.38000107  31.90999985  56.16000366
H    19.62000084  32.50000000  55.27999878
H    21.93000031  32.93999863  55.79000092
H    20.96999931  34.06999969  59.81999969
H    12.76999950  32.79000092  60.45000076
H    23.47999954  33.74000168  56.98999786
H    22.98000145  35.09999847  58.22000122
S    12.01000023  31.40999985  55.86000061
C     9.36999989  30.98999977  56.81000137
C    10.65000057  31.45999908  57.00000000
C    11.06999969  32.02999878  58.25000000
C    10.11000061  32.16999817  59.23999786
C     8.78999996  31.68000031  59.08000183
C     7.86999989  31.73000145  60.17000198
C     6.53999996  31.45999908  59.94999695
C     6.06999969  31.07000160  58.67000198
C     7.00999975  30.78000069  57.71999741
C     8.38999939  31.09999847  57.83000183
C    12.50000000  32.27999878  58.34000015
C    13.10999966  32.09000015  57.06999969
C    14.48999977  32.06999969  56.90999985
C     4.65000010  30.56999969  58.47999954
H     4.21522045  30.96201324  57.56054688
H     9.10000038  30.63999939  55.81999969
H    10.31999969  32.63999939  60.19000244
H     8.15999985  31.94999886  61.19999695
H     5.88999987  31.45000076  60.81999969
H     6.76000023  30.06999969  56.93000031
H    14.98999977  31.70000076  56.02000427
H     4.05000019  30.82999992  59.34999847
H     4.51000023  29.47999954  58.47000122
S    12.15999985  29.01000023  52.44999695
C     9.55999947  28.43000031  53.43000031
C    10.92000008  28.47999954  53.61000061
C    11.51999950  28.02999878  54.82999802
C    10.73999977  27.59000015  55.89000320
C     9.34000015  27.43999863  55.70999908
C     8.57999992  26.84999847  56.76000214
C     7.21000004  26.77999878  56.60999680
C     6.60000038  27.21999931  55.40999985
C     7.35000038  27.80999947  54.41999817
C     8.76999950  27.90999985  54.47999954
C    12.93000031  28.35000038  54.93000031
C    13.42000008  28.85000038  53.68999863
C    14.75000000  29.23000145  53.55999756
C     5.15999985  26.80999947  55.20000076
H     4.61405563  27.39848518  54.46261978
H     9.11000061  28.62999916  52.45999908
H    11.23999977  27.06000137  56.69000244
H     9.11999989  26.40999985  57.58999634
H     6.60000038  26.30000114  57.36000061
H     6.90000010  27.98999977  53.43999863
H    14.98000050  29.51999855  52.54000092
H     5.15999985  25.72000122  55.11000061
H     4.75000000  27.15999985  56.14999771
S    16.38000107  28.18000031  57.05999756
C    18.96999931  28.85999870  56.22000122
C    17.61999893  28.80000114  55.94999695
C    17.06999969  29.30999947  54.72999954
C    17.94000053  29.77000046  53.75999832
C    19.34000015  29.79999924  53.95999908
C    20.17999840  30.45000076  53.02000046
C    21.51000023  30.69999886  53.27000046
C    22.04000092  30.23999977  54.50000000
C    21.25999832  29.53000069  55.38000107
C    19.85999870  29.33000183  55.21999741
C    15.62999916  29.10000038  54.64000320
C    15.14000034  28.57000160  55.86000061
C    13.80000019  28.22999954  56.02000427
C    23.52999878  30.34000015  54.75000000
H    23.88708687  30.01862144  55.72842026
H    19.25000000  28.48999977  57.19999695
H    17.51000023  30.17999840  52.84999847
H    19.76000023  31.04000092  52.22000122
H    22.11000061  31.34000015  52.62000275
H    21.67000008  29.07999992  56.27999878
H    13.42000008  27.70000076  56.88999939
H    23.88000107  31.38000107  54.72999954
H    24.03000069  29.89000130  53.88000107
