96

S    15.14000034  33.25999832  60.66999817
C    17.76000023  33.61999893  59.79000092
C    16.54000092  33.02000046  59.59999847
C    16.18000031  32.47999954  58.31999969
C    17.13999939  32.47999954  57.31999969
C    18.38999939  33.11000061  57.49000168
C    19.32999992  33.13999939  56.42000198
C    20.65999985  33.34999847  56.70999908
C    21.00000000  33.93000031  57.95999908
C    20.10000038  34.04000092  59.00000000
C    18.76000023  33.63999939  58.77999878
C    14.73999977  32.27999878  58.22999954
C    14.04999924  32.63000107  59.41999817
C    12.65999985  32.68000031  59.47999954
C    22.36000061  34.57999802  58.09000015
H    22.91611481  34.04527283  58.86000443
H    17.97000122  33.98999786  60.79000092
H    16.87000084  32.19000244  56.31000137
H    19.03000069  32.92000198  55.40999985
H    21.45999908  33.38000107  55.97000122
H    20.42000008  34.45000076  59.95999908
H    12.15999985  33.02999878  60.38000107
H    22.88000107  34.50000000  57.11999893
H    22.09000015  35.63000107  58.27000046
S    11.44000053  31.55999947  55.86000061
C     8.86999989  30.92000008  56.83000183
C    10.08999920  31.54000092  57.00000000
C    10.48999977  32.09000015  58.26000214
C     9.59000015  32.09000015  59.31000137
C     8.32999992  31.47000122  59.13000107
C     7.39000034  31.47000122  60.20999908
C     6.12999964  30.94000053  60.14999771
C     5.75000000  30.34000015  58.90999603
C     6.60000038  30.36000061  57.83000183
C     7.92000008  30.88999939  57.88000107
C    11.92000008  32.33000183  58.34999847
C    12.58999920  32.00999832  57.14000320
C    13.97999954  32.00999832  57.09000015
C     4.32000017  29.86000061  58.82999802
H     3.77740240  30.30264664  57.99468231
H     8.55000019  30.38000107  55.93999863
H     9.80000019  32.47000122  60.31000137
H     7.81000042  31.97000122  61.07999802
H     5.49000025  31.01000023  61.02000427
H     6.32000017  30.15000153  56.79999924
H    14.44000053  31.73000145  56.14999771
H     3.75000000  30.20999908  59.69999695
H     4.21000004  28.77000046  58.93000031
S    15.03999901  33.34999847  54.05000305
C    17.61000061  34.02000046  53.11000061
C    16.36999893  33.46999741  52.88000107
C    16.04999924  32.90000153  51.60999680
C    17.01000023  32.79000092  50.61999893
C    18.31999969  33.25000000  50.86000061
C    19.31999969  33.27000046  49.84000397
C    20.50000000  33.94000244  50.01999664
C    20.86999893  34.43999863  51.30000305
C    19.89999962  34.48999786  52.28000259
C    18.59000015  33.97000122  52.08000183
C    14.60999966  32.66999817  51.52000046
C    13.94000053  32.83000183  52.76000214
C    12.56000042  32.77000046  52.88000107
C    22.27000046  34.97999954  51.45999908
H    22.70271301  34.57566071  52.37508011
H    17.90999985  34.54999924  54.01000214
H    16.65999985  32.50000000  49.62999725
H    18.93000031  32.97000122  48.87000275
H    21.11000061  34.11999893  49.13999939
H    20.13999939  34.92000198  53.25000000
H    12.09000015  33.06000137  53.81000137
H    22.90999985  34.63000107  50.63999939
H    22.23999977  36.06999969  51.38999939
S    11.23000050  31.70999908  49.31999969
C     8.63000011  31.14000130  50.34000015
C     9.90999985  31.63000107  50.50000000
C    10.31999969  32.23999786  51.72999954
C     9.50000000  32.29999924  52.84999847
C     8.18000031  31.80999947  52.72999573
C     7.27999973  31.78999901  53.83999634
C     6.02999973  31.24000168  53.68000031
C     5.65000010  30.62000084  52.45999908
C     6.51999998  30.56999969  51.38999939
C     7.79999971  31.18999863  51.49000168
C    11.76000023  32.44999695  51.77999878
C    12.38999939  32.29999924  50.52000046
C    13.78000069  32.29000092  50.45999908
C     4.25000000  30.07999802  52.29000092
H     3.76576233  30.69953918  51.53516006
H     8.36000061  30.62999916  49.43000031
H     9.73999977  32.49000168  53.88999939
H     7.53999996  32.11999893  54.84000397
H     5.46000004  31.17000198  54.59999847
H     6.09000015  30.25000000  50.45000076
H    14.34999943  32.00000000  49.58000183
H     3.63000011  30.10000038  53.18999863
H     4.42999983  29.04000092  52.02000046
