96

S    15.76000023  33.27999878  60.45999908
C    18.30999947  33.95999908  59.45999908
C    17.09000015  33.34000015  59.29000092
C    16.72999954  32.81999969  58.01000214
C    17.71000099  32.66999817  57.04999924
C    19.03000069  33.09000015  57.29999924
C    20.03000069  33.02999878  56.29000092
C    21.34000015  33.38999939  56.51000214
C    21.63999939  34.09000015  57.70999908
C    20.69000053  34.24000168  58.68999863
C    19.37999916  33.70999908  58.54999924
C    15.34000015  32.40000153  57.98999786
C    14.68000031  32.59000015  59.22999954
C    13.28999996  32.55000305  59.31000137
C    22.92000008  34.87999725  57.88000107
H    23.56778908  34.38881683  58.60609436
H    18.45999908  34.63000107  60.30000305
H    17.50000000  32.38999939  56.00999832
H    19.68000031  32.72999954  55.30000305
H    22.03000069  33.22000122  55.68999863
H    20.82999992  34.76000214  59.62999725
H    12.69999981  32.95999908  60.13000107
H    23.42000008  34.93000031  56.90000153
H    22.69000053  35.91999817  58.13999939
S    12.09000015  31.21999931  55.83000183
C     9.44999981  30.86000061  56.59000015
C    10.67000008  31.44000053  56.86999893
C    11.06999969  31.94000053  58.15000153
C    10.14000034  32.13999939  59.15000153
C     8.84000015  31.64999962  58.87000275
C     7.83999968  31.73999977  59.87999725
C     6.57000017  31.21999931  59.75000000
C     6.21999979  30.63999939  58.50000000
C     7.17000008  30.50000000  57.50999832
C     8.50000000  31.01000023  57.63000107
C    12.51999950  32.07999802  58.25000000
C    13.23999977  31.68000031  57.09999847
C    14.61999989  31.76000214  56.97000122
C     4.86000013  30.00000000  58.30999756
H     4.41141462  30.54115105  57.47691345
H     9.25000000  30.43000031  55.61000061
H    10.47999954  32.54000092  60.10000229
H     8.10999966  32.13000107  60.84999847
H     5.86000013  31.27000046  60.56999969
H     6.97000027  29.84000015  56.66999817
H    15.07999992  31.63000107  55.98999786
H     4.33999968  29.93999863  59.27000046
H     5.07000017  28.97999954  57.97999954
S    15.50000000  33.58000183  54.27999878
C    18.11000061  33.94000244  53.52000427
C    16.86000061  33.51000214  53.13999939
C    16.44000053  33.22000122  51.79999924
C    17.40999985  33.22999954  50.80999756
C    18.75000000  33.55999756  51.11999893
C    19.70999908  33.65000153  50.07999802
C    20.95000076  34.20999908  50.28999710
C    21.31999969  34.54000092  51.62000275
C    20.38000107  34.45999908  52.62000275
C    19.05999947  33.94000244  52.47000122
C    15.01000023  33.00000000  51.70999908
C    14.37000084  33.23999786  52.95000076
C    13.03999996  32.88000107  53.16999817
C    22.70000076  35.02999878  51.98999786
H    23.17055893  34.32416534  52.67444611
H    18.30999947  34.36999893  54.50000000
H    17.12000084  33.09999847  49.77000427
H    19.27999878  33.31999969  49.13999939
H    21.64999962  34.41999817  49.47999954
H    20.65000153  34.84999847  53.60000229
H    12.53999901  33.15000153  54.09000015
H    23.32999992  35.19000244  51.11000061
H    22.49000168  35.94000244  52.57999802
S    11.73999977  32.11999893  49.43999863
C     9.11000061  31.61999893  50.33000183
C    10.38000011  32.06000137  50.59000015
C    10.81999969  32.30999756  51.93000031
C     9.89999962  32.09999847  52.93000031
C     8.52999973  31.80999947  52.70000076
C     7.51999950  31.70999908  53.69999695
C     6.19999981  31.54000092  53.34999847
C     5.84000015  31.24000168  52.01000214
C     6.81999969  31.09999847  51.05999756
C     8.10999966  31.63999939  51.33999634
C    12.25000000  32.56999969  52.04999924
C    12.86000061  32.47000122  50.77999878
C    14.22000027  32.68000031  50.59999847
C     4.48000002  30.66999817  51.63999939
H     3.86024880  31.31112099  51.01312637
H     8.82999992  31.05999947  49.45000076
H    10.31000042  32.20000076  53.93000031
H     7.73999977  31.93000031  54.73999786
H     5.44000053  31.52000046  54.13000107
H     6.57000017  30.71000099  50.06999969
H    14.68999958  32.65999985  49.61999893
H     3.86999989  30.50000000  52.54000092
H     4.61999989  29.73999977  51.07999802
