96

S    15.26000023  33.45000076  60.38000107
C    17.93000031  33.91999817  59.58000183
C    16.70999908  33.32999802  59.36000061
C    16.36000061  32.72999954  58.11000061
C    17.30999947  32.69000244  57.09999847
C    18.60000038  33.22999954  57.27000427
C    19.57999992  33.13000107  56.24000168
C    20.79000092  33.75000000  56.38999939
C    21.12999916  34.36999893  57.63000107
C    20.20999908  34.36999893  58.64999771
C    18.89999962  33.81999969  58.54999924
C    14.93999958  32.45999908  57.98999786
C    14.17000008  32.77000046  59.13999939
C    12.79999924  32.97000122  59.15000153
C    22.50999832  34.97000122  57.77999878
H    23.09165192  34.38125229  58.48933029
H    18.22000122  34.29000092  60.56000137
H    17.00000000  32.22999954  56.16000366
H    19.38999939  32.50000000  55.37000275
H    21.45999908  33.69999695  55.52999878
H    20.32999992  34.86999893  59.59999847
H    12.22000027  33.18000031  60.05000305
H    23.01000214  35.13000107  56.81999969
H    22.32999992  35.95999908  58.23999786
S    11.68000031  31.21999931  55.80999756
C     9.02999973  31.14999962  56.44000244
C    10.26999950  31.63000107  56.79999924
C    10.62000084  32.36000061  57.98999786
C     9.59000015  32.68000031  58.86000061
C     8.30999947  32.11999893  58.61999893
C     7.28999996  32.29999924  59.59000015
C     6.01999998  31.83000183  59.34999847
C     5.75000000  31.09999847  58.15999985
C     6.71999979  30.86000061  57.22000122
C     8.01999950  31.42000008  57.39999771
C    12.05999947  32.52000046  58.04999924
C    12.79000092  31.94999886  56.97999954
C    14.18000031  31.87000084  56.95999908
C     4.39000034  30.48999977  57.95000076
H     3.83387470  30.90353012  57.10868073
H     8.86999989  30.51000214  55.58000183
H     9.70000076  33.20000076  59.80999756
H     7.53000021  32.86999893  60.48999786
H     5.23999977  31.97000122  60.08999634
H     6.48999977  30.36000061  56.27999878
H    14.78999996  31.54000092  56.12999725
H     3.72000003  30.59000015  58.81999969
H     4.59000015  29.40999985  57.88999939
S    15.59999943  33.90999985  54.26000214
C    18.26000023  34.18000031  53.30999756
C    16.97999954  33.68999863  53.16999817
C    16.56999969  33.04999924  51.95999908
C    17.43999863  32.99000168  50.87999725
C    18.78000069  33.39999771  51.04999924
C    19.63000107  33.40999985  49.91000366
C    20.92000008  33.84000015  50.12000275
C    21.40000153  34.36999893  51.33999634
C    20.58000183  34.40000153  52.44999695
C    19.22000122  34.02000046  52.27000427
C    15.13000011  32.92000198  51.81999969
C    14.47999954  33.31000137  53.02000046
C    13.09999943  33.36000061  53.13999939
C    22.77000046  35.00000000  51.44000244
H    23.38683510  34.49660873  52.18445587
H    18.54999924  34.61000061  54.26000214
H    17.13999939  32.65999985  49.87999725
H    19.32999992  33.13999939  48.89999771
H    21.54999924  33.93000031  49.22999954
H    20.95999908  34.59999847  53.43999863
H    12.55000019  33.56999969  54.05000305
H    23.31999969  34.86000061  50.51000214
H    22.70999908  36.06999969  51.66999817
S    11.84999943  31.94000053  49.64000320
C     9.22999954  31.73000145  50.45000076
C    10.46000004  32.30999756  50.66999817
C    10.86999989  32.88999939  51.90999985
C     9.90999985  32.95999908  52.90000153
C     8.56999969  32.59000015  52.63000107
C     7.53999996  32.57999802  53.61000061
C     6.28000021  32.06000137  53.41999817
C     5.96000004  31.35999870  52.22999954
C     6.98000002  31.18000031  51.32999802
C     8.21000004  31.88999939  51.42000198
C    12.31999969  33.02000046  52.02000046
C    12.97999954  32.59000015  50.84000015
C    14.35999966  32.56999969  50.70000076
C     4.61000013  30.69999886  52.05999756
H     3.99752903  31.23413277  51.33358002
H     9.03999996  31.04999924  49.61999893
H    10.14000034  33.23999786  53.93000031
H     7.78999996  32.93000031  54.61000061
H     5.50000000  32.13000107  54.18000031
H     6.93000031  30.51000214  50.47999954
H    14.80999947  32.27999878  49.75999832
H     4.09999990  30.73999786  53.02999878
H     4.72000027  29.63000107  51.81000137
