96

S    15.18000031  32.56999969  60.84000015
C    17.79000092  33.11999893  59.91000366
C    16.52000046  32.63000107  59.68000031
C    16.13000107  32.06000137  58.43000031
C    17.05000114  32.00999832  57.39999771
C    18.38000107  32.44999695  57.58999634
C    19.29000092  32.56000137  56.50000000
C    20.56999969  32.97999954  56.76000214
C    21.01000023  33.44000244  58.02999878
C    20.06999969  33.50000000  59.02999878
C    18.72999954  33.06000137  58.85000229
C    14.68999958  31.83000183  58.34999847
C    14.02999973  32.13000107  59.55999756
C    12.64999962  32.30999756  59.61999893
C    22.43000031  33.95000076  58.20000076
H    22.95750427  33.38685226  58.96987152
H    18.09999847  33.65000153  60.80999756
H    16.70999908  31.83000183  56.38000107
H    19.13999939  32.31999969  55.45000076
H    21.32999802  32.97999954  55.97999954
H    20.38000107  33.75000000  60.04000092
H    12.22000027  32.59000015  60.56999969
H    22.98000145  33.95999908  57.25000000
H    22.30999947  35.00999832  58.47999954
S    11.36000061  31.17000198  56.07999802
C     8.78000069  30.62999916  56.97999954
C    10.00000000  31.21999931  57.22000122
C    10.39999962  31.80000114  58.46000290
C     9.39000034  31.90999985  59.40999985
C     8.07999992  31.42999840  59.20000076
C     7.07000017  31.50000000  60.20999908
C     5.86999989  30.90999985  59.86999893
C     5.50000000  30.35000038  58.61999893
C     6.44999981  30.34000015  57.62000275
C     7.76000023  30.79000092  57.95000076
C    11.84999943  31.93000031  58.53000259
C    12.53000069  31.67000008  57.31999969
C    13.90999985  31.59000015  57.21000290
C     4.13000011  29.77000046  58.34999847
H     3.51046014  30.42514610  57.73758316
H     8.55000019  30.25000000  55.98999786
H     9.55999947  32.34999847  60.38999939
H     7.23999977  31.94000053  61.18999863
H     5.22000027  30.75000000  60.72000122
H     6.28999996  30.00999832  56.59999847
H    14.28999996  31.48999977  56.18999863
H     3.74000025  29.54999924  59.34999847
H     4.09999990  28.87000084  57.72999573
S    15.65000057  33.11000061  54.31000137
C    18.19000053  33.94000244  53.39000320
C    16.95000076  33.39999771  53.13999939
C    16.60000038  33.11999893  51.77999878
C    17.45000076  33.23999786  50.70000076
C    18.77000046  33.67000198  50.98999786
C    19.77000046  33.77000046  49.98000336
C    21.09999847  33.90999985  50.30000305
C    21.45000076  34.34000015  51.59999847
C    20.46999931  34.43999863  52.56000137
C    19.11999893  34.04999924  52.32999802
C    15.15999985  32.88000107  51.70000076
C    14.52999973  32.86999893  52.97000122
C    13.15000057  32.75000000  53.13999939
C    22.88000107  34.77000046  51.88000107
H    23.36878014  34.03329086  52.51753616
H    18.53000069  34.06999969  54.40999985
H    17.20000076  32.93999863  49.68000031
H    19.38999939  33.52000046  48.99000168
H    21.81999969  33.87000275  49.48999786
H    20.71000099  34.79000092  53.56999969
H    12.75000000  32.84000015  54.13999939
H    23.39999962  34.70000076  50.91999817
H    23.11000061  35.77999878  52.22999954
S    11.72000027  32.13999939  49.54999924
C     9.11999989  31.55999947  50.54999924
C    10.39000034  32.06000137  50.72999954
C    10.88000107  32.31999969  52.04999924
C     9.98000050  32.37999725  53.09999847
C     8.64999962  31.90999985  52.95000076
C     7.71000004  31.83000183  54.02000046
C     6.43000031  31.35000038  53.88000107
C     6.00000000  30.95000076  52.58999634
C     6.90999985  30.94000053  51.55000305
C     8.25000000  31.40999985  51.65999985
C    12.31999969  32.50999832  52.02999878
C    12.97000027  32.37999725  50.77999878
C    14.34999943  32.50000000  50.61999893
C     4.63000011  30.35000038  52.36000061
H     4.32262135  30.62878418  51.35208130
H     8.85000038  31.09000015  49.61000061
H    10.31000042  32.70000076  54.09000015
H     8.10000038  32.02000046  55.01999664
H     5.78999996  31.34000015  54.75000000
H     6.56000042  30.72999954  50.54999924
H    14.84000015  32.36999893  49.65999985
H     4.00999975  30.90999985  53.08000183
H     4.55000019  29.30000114  52.64999771
