96

S    15.80999947  33.00000000  60.38999939
C    18.45000076  33.29999924  59.47999954
C    17.12000084  33.11999893  59.20000076
C    16.67000008  32.75000000  57.88999939
C    17.60000038  32.52000046  56.88999939
C    18.97999954  32.76000214  57.14000320
C    19.98999977  32.83000183  56.14999771
C    21.31999969  33.06999969  56.42000198
C    21.65999985  33.63999939  57.68000031
C    20.73999786  33.59000015  58.69999695
C    19.42000008  33.13000107  58.46000290
C    15.21999931  32.56000137  57.84000015
C    14.61999989  32.66999817  59.12000275
C    13.23999977  32.72000122  59.27000046
C    23.02000046  34.26000214  57.91999817
H    23.54705238  33.63323593  58.63935852
H    18.70000076  33.81000137  60.40999985
H    17.35999870  32.37999725  55.84000015
H    19.70000076  32.59999847  55.12000275
H    22.10000038  32.93000031  55.68000031
H    20.92000008  34.03000259  59.66999817
H    12.86999893  32.78000259  60.28999710
H    23.59999847  34.29999924  57.00000000
H    22.85000038  35.27000046  58.30999756
S    11.84999943  31.83000183  55.65999985
C     9.26999950  31.38000107  56.60999680
C    10.54999924  31.81999969  56.86000061
C    10.98000050  32.20000076  58.16999817
C    10.01999950  32.30999756  59.15999985
C     8.69000053  31.87000084  58.96999741
C     7.68000031  32.04000092  59.97000122
C     6.35999966  31.83000183  59.65000153
C     5.98000002  31.52000046  58.31999969
C     6.94000006  31.11000061  57.43000031
C     8.30999947  31.44000053  57.65999603
C    12.42000008  32.42000198  58.18000031
C    13.03999996  32.27000046  56.90999985
C    14.40999985  32.34999847  56.72000122
C     4.51999998  31.14999962  58.11000061
H     4.05890322  31.69622040  57.28712082
H     8.93000031  31.21000099  55.59000015
H    10.22999954  32.63000107  60.18000031
H     7.99000025  32.20999908  61.00000000
H     5.66999960  31.73999977  60.47999954
H     6.63999987  30.69000053  56.47999573
H    14.86999989  32.22999954  55.73999786
H     4.11999989  31.51000023  59.06000137
H     4.50000000  30.06000137  58.04999924
S    11.97000027  29.63999939  52.65999603
C     9.39999962  28.82999802  53.52000427
C    10.76000023  28.88999939  53.72000122
C    11.33999920  28.32999992  54.89999771
C    10.57000065  27.67999840  55.84999847
C     9.17000008  27.55000114  55.65000153
C     8.23999977  27.06999969  56.62000275
C     6.86999989  27.10000038  56.44000244
C     6.30000019  27.73999977  55.31000137
C     7.17999983  28.29999924  54.40999985
C     8.60000038  28.22000122  54.51000214
C    12.77999973  28.51000023  54.93999863
C    13.26000023  29.20000076  53.80000305
C    14.56999969  29.63000107  53.64999771
C     4.80999994  27.90999985  55.17000198
H     4.40462255  27.48328590  54.25256729
H     8.85999966  29.30000114  52.70000076
H    11.02000046  27.39999962  56.79000092
H     8.59000015  26.65999985  57.56000137
H     6.23000050  26.61999893  57.18000031
H     6.80999994  28.85999870  53.55999756
H    14.88000011  30.36000061  52.90000153
H     4.28999996  27.37999916  55.97000122
H     4.56999969  28.97999954  55.13999939
S    16.23999977  28.13999939  56.97999954
C    18.82999992  28.82999802  56.03000259
C    17.46000099  28.88999939  55.91999817
C    16.86000061  29.54999924  54.79999924
C    17.65999985  30.26000023  53.92000198
C    19.06999969  30.22000122  54.02999878
C    19.89999962  30.81000137  53.02999878
C    21.27000046  30.76999855  53.16999817
C    21.84999847  30.12000084  54.29000092
C    21.09000015  29.51999855  55.26000214
C    19.67000008  29.56999969  55.15999603
C    15.46000004  29.18999863  54.65000153
C    14.96999931  28.52000046  55.79999924
C    13.63999939  28.13999939  55.98999786
C    23.31999969  29.76000023  54.40999985
H    23.79495239  30.14988518  55.31028366
H    19.27999878  28.18000031  56.77000046
H    17.20000076  30.62000084  53.01000214
H    19.48999977  31.22999954  52.11000061
H    21.91999817  31.11000061  52.36999893
H    21.55999947  28.80000114  55.93000031
H    13.30000019  27.65999985  56.88999939
H    23.80000114  30.17000008  53.52000427
H    23.48999977  28.68000031  54.33000183
