96

S    15.29000092  33.01000214  59.97000122
C    17.80999947  33.56999969  58.96999741
C    16.52000046  33.15999985  58.70999908
C    16.07999992  32.63999939  57.44999695
C    16.98999977  32.36000061  56.45999908
C    18.29000092  32.88999939  56.63999939
C    19.23999977  32.88000107  55.58000183
C    20.46999931  33.48999786  55.70000076
C    20.95000076  33.94000244  56.95000076
C    20.09000015  33.84000015  58.02000046
C    18.75000000  33.36999893  57.91999817
C    14.68000031  32.22999954  57.50000000
C    14.11000061  32.43000031  58.77999878
C    12.72999954  32.43999863  58.94000244
C    22.32000160  34.56999969  57.09000015
H    22.86124229  34.05012512  57.88049698
H    18.15000153  33.90999985  59.93999863
H    16.72999954  31.80000114  55.56000137
H    18.88000107  32.56999969  54.61000061
H    21.09000015  33.70999908  54.82999802
H    20.48000145  34.06999969  59.01000214
H    12.22000027  32.69000244  59.86000061
H    22.86000061  34.34000015  56.17000198
H    22.27000046  35.63000107  57.36000061
S    11.39999962  30.95000076  55.52000046
C     8.82000065  30.59999847  56.45999908
C    10.07999992  31.09000015  56.70999908
C    10.44000053  31.83000183  57.87000275
C     9.48999977  31.97000122  58.86000061
C     8.19000053  31.42000008  58.73000336
C     7.13999987  31.61000061  59.66999817
C     5.86000013  31.14000130  59.48999786
C     5.59999990  30.48999977  58.26000214
C     6.57000017  30.20999908  57.31999969
C     7.88000011  30.71000099  57.51999664
C    11.87999916  32.04999924  57.88999939
C    12.51999950  31.70999908  56.66999817
C    13.89000034  31.65999985  56.49000168
C     4.21999979  29.86999893  58.20999908
H     3.57522964  30.38014793  57.49437332
H     8.60000038  30.10999870  55.51000214
H     9.75000000  32.36999893  59.84000397
H     7.37999964  32.13000107  60.59999847
H     5.22000027  31.18000031  60.37000275
H     6.44999981  29.59000015  56.44000244
H    14.27999973  31.28000069  55.54999924
H     3.82999992  29.80999947  59.22999954
H     4.36999989  28.85999870  57.80000305
S    14.89999962  33.56999969  53.92000198
C    17.42000008  34.29999924  52.98999786
C    16.21000099  33.70999908  52.72999573
C    15.90999985  33.02999878  51.51000214
C    16.84999847  33.06999969  50.50000000
C    18.12000084  33.65000153  50.70000076
C    19.17000008  33.61999893  49.73999786
C    20.39999962  34.18999863  49.94999695
C    20.68000031  34.84000015  51.18999863
C    19.70999908  34.77999878  52.15999985
C    18.40999985  34.22999954  51.97999954
C    14.52000046  32.56999969  51.46999741
C    13.88000011  32.73999786  52.72999573
C    12.50000000  32.61000061  52.81000137
C    22.06000137  35.42000198  51.43000031
H    22.70752525  34.70843124  51.94232941
H    17.53999901  34.94999695  53.86000061
H    16.69999886  32.40999985  49.65000153
H    19.07999992  32.86999893  48.95000076
H    21.14999962  33.84000015  49.23999786
H    19.93000031  35.23999786  53.11999893
H    11.97000027  32.78000259  53.74000168
H    22.46000099  35.63999939  50.43000031
H    21.91999817  36.36000061  51.97000122
S    11.36000061  31.50000000  49.12000275
C     8.67000008  31.38000107  49.86000061
C     9.98000050  31.54999924  50.22999573
C    10.34999943  31.97000122  51.55000305
C     9.39999962  32.06999969  52.55000305
C     8.05999947  31.70999908  52.27000427
C     7.09999990  31.57999992  53.31999969
C     5.82999992  31.15999985  53.02000046
C     5.46999979  30.90999985  51.66999817
C     6.34999990  31.12999916  50.63000107
C     7.71000004  31.42999840  50.90999985
C    11.77999973  32.25000000  51.66999817
C    12.43000031  32.00999832  50.44000244
C    13.81000042  32.18000031  50.33000183
C     4.05999994  30.43000031  51.42000198
H     3.54250407  30.91205215  50.59059143
H     8.51000023  31.15999985  48.81000137
H     9.70000076  32.34999847  53.55999756
H     7.44000006  31.87999916  54.31000137
H     5.01999950  31.18999863  53.74000168
H     6.15000010  30.86999893  49.59000015
H    14.42000008  32.16999817  49.43000031
H     3.51000023  30.65000153  52.34000397
H     4.18000031  29.34000015  51.31999969
