96

S    15.01999950  33.00000000  60.35999680
C    17.71000099  33.34000015  59.52000046
C    16.40999985  32.95999908  59.26000214
C    16.06999969  32.72000122  57.88999939
C    17.05999947  32.85000229  56.93000031
C    18.39999962  33.22000122  57.16999817
C    19.34000015  33.41999817  56.11999893
C    20.62000084  33.82999802  56.40999603
C    20.94000053  34.11999893  57.76000214
C    20.06000137  33.90999985  58.79000092
C    18.73999977  33.44000244  58.54999924
C    14.63000107  32.54000092  57.81000137
C    13.90999985  32.61000061  59.02999878
C    12.55000019  32.37999725  59.19000244
C    22.36000061  34.56000137  58.06000137
H    22.86614037  33.96831512  58.82277679
H    17.81999969  33.77000046  60.51000214
H    16.62999916  32.78000259  55.93000031
H    18.95000076  33.25000000  55.12000275
H    21.28000069  34.11000061  55.59999847
H    20.29999924  34.00000000  59.85000229
H    12.11999989  32.44999695  60.18000031
H    23.09000015  34.63999939  57.23999786
H    22.25000000  35.59999847  58.39000320
S    11.39000034  31.90000153  55.43000031
C     8.69999981  31.22999954  56.19999695
C     9.98000050  31.63000107  56.47999573
C    10.39000034  31.84000015  57.84000015
C     9.47000027  31.64999962  58.85000229
C     8.11999989  31.31000137  58.56999969
C     7.09999990  31.22999954  59.55999756
C     5.88000011  30.63999939  59.31999969
C     5.50000000  30.38999939  57.97999954
C     6.38999987  30.62000084  56.95999908
C     7.73000002  31.04999924  57.22000122
C    11.79999924  32.13999939  58.02000046
C    12.50000000  32.15999985  56.79000092
C    13.88000011  32.27999878  56.65999985
C     4.11999989  29.82999992  57.69000244
H     3.70616055  30.27238083  56.78383636
H     8.47000027  30.98999977  55.15999603
H     9.71000004  32.00000000  59.85000229
H     7.48000050  31.35000038  60.56999969
H     5.19999981  30.31999969  60.11000061
H     6.00000000  30.38999939  55.97000122
H    14.32999992  32.25000000  55.68000031
H     3.51999998  30.13999939  58.55999756
H     4.07000017  28.74000168  57.56000137
S    11.10999966  29.38999939  52.58999634
C     8.48999977  28.68000031  53.44999695
C     9.85000038  28.74000168  53.67000198
C    10.46000004  28.16999817  54.82999802
C     9.61999989  27.52000046  55.70999908
C     8.22000027  27.44999886  55.54000092
C     7.39000034  26.73999977  56.45000076
C     6.02999973  26.77000046  56.27999878
C     5.40999985  27.22999954  55.08999634
C     6.21000004  27.89999962  54.20000076
C     7.63000011  28.01000214  54.34999847
C    11.87999916  28.45999908  54.97000122
C    12.36999989  29.11999893  53.81999969
C    13.69999981  29.46000099  53.62999725
C     3.91999984  27.03000069  54.89999771
H     3.45728230  27.47136307  54.01728058
H     8.02999973  29.09000015  52.56000137
H    10.03000069  27.10000038  56.63000107
H     7.82000017  26.35000038  57.36999893
H     5.45000029  26.44000053  57.14000320
H     5.86000013  28.47999954  53.34999847
H    14.11000061  29.79999924  52.68000031
H     3.72000003  25.95000076  54.93000031
H     3.35999990  27.30999947  55.79999924
S    15.44999981  28.02000046  56.86999893
C    18.02000046  28.84000015  56.16000366
C    16.68000031  28.78999901  55.84999847
C    16.04999924  29.40999985  54.72999954
C    16.81999969  30.09000015  53.81000137
C    18.22000122  30.12000084  54.01000214
C    19.07999992  30.63999939  53.00000000
C    20.43000031  30.81000137  53.22000122
C    20.94000053  30.42000008  54.48999786
C    20.17999840  29.76000023  55.43000031
C    18.78000069  29.57999992  55.21999741
C    14.60999966  29.20000076  54.65999985
C    14.11999893  28.52000046  55.80999756
C    12.79000092  28.18000031  56.00000000
C    22.39000130  30.68000031  54.82999802
H    22.76879692  30.07249451  55.65191650
H    18.45999908  28.31000137  57.00000000
H    16.42000008  30.56999969  52.91999817
H    18.71000099  31.09000015  52.08000183
H    21.04999924  31.18999863  52.41000366
H    20.66999817  29.53000069  56.37000275
H    12.46000099  27.60000038  56.86000061
H    22.47999954  31.76000214  54.98000336
H    23.01000214  30.53999901  53.93000031
