96

S    15.27999973  32.43999863  60.59999847
C    17.82999992  33.16999817  59.55999756
C    16.52000046  32.77000046  59.36999893
C    16.06999969  32.40999985  58.06000137
C    16.93000031  32.40999985  56.97999954
C    18.27000046  32.84000015  57.16999817
C    19.18000031  32.86000061  56.06999969
C    20.43000031  33.36000061  56.31999969
C    20.93000031  33.72999954  57.60000229
C    20.07999802  33.65999985  58.67000198
C    18.72999954  33.22000122  58.47999954
C    14.63000107  32.21999741  58.02999878
C    14.06999969  32.16999817  59.33000183
C    12.68000031  32.09999847  59.43999863
C    22.39000130  34.04999924  57.81999969
H    22.79590607  33.46606445  58.64604950
H    18.15999985  33.58000183  60.51000214
H    16.54000092  32.36999893  55.97000122
H    18.85000038  32.63999939  55.06000137
H    21.02000046  33.51000214  55.40999985
H    20.35000038  34.01000214  59.65999985
H    12.15000057  32.29000092  60.35999680
H    22.90999985  33.77000046  56.90000153
H    22.49000168  35.13999939  57.95999908
S    11.36999989  31.68999863  55.68999863
C     8.75000000  31.21999931  56.53999710
C    10.03000069  31.60000038  56.86000061
C    10.52999973  31.84999847  58.18000031
C     9.61000061  31.80999947  59.22000122
C     8.25000000  31.54000092  58.93000031
C     7.25000000  31.61000061  59.93999863
C     5.93999958  31.25999832  59.71000290
C     5.51000023  30.81999969  58.43000031
C     6.48999977  30.65999985  57.48000336
C     7.81000042  31.18999863  57.61000061
C    11.97999954  31.94000053  58.23999786
C    12.58999920  31.81999969  56.97000122
C    13.96999931  31.90999985  56.83000183
C     4.21000004  30.06999969  58.25000000
H     3.67727661  30.29729462  57.32661438
H     8.43999958  30.79000092  55.59000015
H     9.85000038  32.00999832  60.26000214
H     7.63000011  31.90000153  60.91999817
H     5.19000006  31.14999962  60.47999954
H     6.25999975  30.15000153  56.55000305
H    14.45000076  31.97000122  55.86000061
H     3.56999993  30.25000000  59.12000275
H     4.55000019  29.03000069  58.23999786
S    11.05000019  29.48999786  52.75000000
C     8.47999954  28.87000084  53.76999664
C     9.85000038  28.78999901  53.86000061
C    10.52000046  28.13999939  54.93999863
C     9.80000019  27.36000061  55.81999969
C     8.38999939  27.53999901  55.84999847
C     7.65999985  26.90999985  56.90000153
C     6.30000019  26.75000000  56.72000122
C     5.65999985  27.46999931  55.68000031
C     6.30999994  28.16999817  54.68000031
C     7.73000002  28.23999786  54.79000092
C    11.96000004  28.36000061  54.93000031
C    12.42000008  29.10000038  53.81000137
C    13.75000000  29.44999886  53.59000397
C     4.26000023  26.96000099  55.44000244
H     3.81975651  27.25822830  54.48850632
H     7.88999987  29.27000046  52.95000076
H    10.34999943  26.68999863  56.47999573
H     8.23999977  26.35999870  57.63000107
H     5.80999947  26.02000046  57.34000397
H     5.86999989  28.54000092  53.75999832
H    14.06999969  30.06000137  52.75000000
H     4.39000034  25.88000107  55.26000214
H     3.58999991  27.04999924  56.30000305
S    15.57000065  27.88000107  56.75000000
C    18.13999939  28.78000069  55.93000031
C    16.77999878  28.68999863  55.72999954
C    16.13999939  29.23999977  54.56999969
C    16.92000008  29.90999985  53.64999771
C    18.32999992  29.92000198  53.69999695
C    19.20999908  30.55999947  52.77999878
C    20.55999947  30.73999786  52.98999786
C    21.07999992  30.28000069  54.22999954
C    20.29999924  29.57999992  55.12000275
C    18.90999985  29.40000153  54.91000366
C    14.70000076  29.02000046  54.52000046
C    14.23999977  28.31000137  55.65999985
C    12.93000031  27.86999893  55.80999756
C    22.53000069  30.52000046  54.59999847
H    22.90741158  29.90759468  55.41891098
H    18.54999924  28.23999786  56.77000046
H    16.38000107  30.25000000  52.76000214
H    18.70000076  31.07000160  51.97000122
H    21.14999962  31.32999802  52.29999924
H    20.71000099  29.11999893  56.02000427
H    12.64999962  27.23999977  56.65000153
H    22.67999840  31.60000038  54.69999695
H    23.06999969  30.27000046  53.68000031
