96

S    15.42000008  33.18000031  60.00000000
C    18.02000046  33.77999878  59.15999985
C    16.80999947  33.16999817  58.90999603
C    16.46000099  32.59999847  57.63999939
C    17.50000000  32.38999939  56.75000000
C    18.81000137  32.88000107  56.97000122
C    19.88000107  32.78000259  56.03000259
C    21.09000015  33.36999893  56.27999878
C    21.40000153  34.03000259  57.50000000
C    20.32999992  34.20000076  58.34000015
C    19.02000046  33.65999985  58.15999985
C    15.03999901  32.29000092  57.54000092
C    14.34000015  32.50000000  58.75999832
C    12.96000004  32.47999954  58.88999939
C    22.79999924  34.52000046  57.81999969
H    23.22675896  33.92964935  58.63084030
H    18.18000031  34.26000214  60.12000275
H    17.25000000  31.91999817  55.80999756
H    19.73999977  32.34000015  55.04000092
H    21.80000114  33.15999985  55.48999786
H    20.52000046  34.76000214  59.23999786
H    12.43000031  32.57999802  59.82999802
H    23.45999908  34.47000122  56.95000076
H    22.79999924  35.56000137  58.18999863
S    11.80999947  31.30000114  55.31000137
C     9.23999977  30.62000084  56.30000305
C    10.43000031  31.28999901  56.43000031
C    10.82999992  31.80999947  57.70000076
C     9.84000015  31.84999847  58.67000198
C     8.55000019  31.27000046  58.54999924
C     7.53000021  31.42000008  59.52999878
C     6.25000000  31.00000000  59.23999786
C     5.98000002  30.30999947  58.02999878
C     6.96000004  30.12000084  57.09000015
C     8.30000019  30.51000214  57.36000061
C    12.25000000  32.11000061  57.74000168
C    12.97000027  31.80000114  56.56000137
C    14.34000015  31.93000031  56.38999939
C     4.55999994  29.86999893  57.75000000
H     4.03213406  30.52626610  57.05806732
H     9.00000000  30.36000061  55.27000046
H     9.94000053  32.36000061  59.61999893
H     7.76999998  32.04000092  60.38999939
H     5.47999954  31.28999901  59.94999695
H     6.76000023  29.82999992  56.05999756
H    14.80999947  31.77000046  55.41999817
H     4.00000000  29.65999985  58.68000031
H     4.63000011  28.85999870  57.31999969
S    11.90999985  28.87000084  52.50000000
C     9.35000038  28.05999947  53.47000122
C    10.72000027  28.12000084  53.57999802
C    11.36999989  27.70000076  54.79000092
C    10.59999943  27.26000023  55.84000015
C     9.19000053  27.20999908  55.73999786
C     8.38999939  26.70999908  56.81000137
C     7.03999996  26.47999954  56.63000107
C     6.40999985  26.88999939  55.41999817
C     7.11000013  27.50000000  54.40999985
C     8.52999973  27.56999969  54.51000214
C    12.79000092  27.98999977  54.87999725
C    13.19000053  28.68000031  53.70999908
C    14.47999954  29.18999863  53.60000229
C     4.92999983  26.61999893  55.24000168
H     4.52315664  26.94832802  54.28356171
H     8.97999954  28.39999962  52.50000000
H    11.09000015  26.90000153  56.73999786
H     8.90999985  26.27000046  57.64999771
H     6.44999981  26.15999985  57.48000336
H     6.58999968  27.70999908  53.47999954
H    14.78000069  29.70999908  52.69000244
H     4.71000004  25.55999947  55.43000031
H     4.36999989  27.06000137  56.07999802
S    16.35000038  28.16999817  56.97000122
C    18.86999893  28.87000084  56.00999832
C    17.53000069  28.69999886  55.76000214
C    16.87999916  29.11000061  54.54999924
C    17.64000130  29.72999954  53.56999969
C    19.04999924  29.82999992  53.68999863
C    19.80999947  30.55000114  52.72999573
C    21.14999962  30.72000122  52.98999786
C    21.77000046  30.13999939  54.13000107
C    21.02000046  29.54999924  55.13000107
C    19.62000084  29.41999817  54.93999863
C    15.44000053  28.88000107  54.58000183
C    15.01000023  28.31000137  55.79999924
C    13.71999931  27.80999947  55.90999985
C    23.22000122  30.43000031  54.43000031
H    23.46823692  30.16757965  55.45840454
H    19.19000053  28.90000153  57.04999924
H    17.12000084  30.06000137  52.68000031
H    19.38999939  30.95999908  51.81999969
H    21.76000214  31.47999954  52.50000000
H    21.64999962  29.26000214  55.96000290
H    13.35000038  27.39999962  56.84999847
H    23.32999992  31.50000000  54.25000000
H    23.88999939  29.99000168  53.68000031
