96

S    15.34000015  32.95000076  60.31999969
C    18.04999924  33.13999939  59.62999725
C    16.79000092  32.63000107  59.36000061
C    16.40999985  32.27999878  58.02999878
C    17.38000107  32.29000092  57.04000092
C    18.71000099  32.72000122  57.28000259
C    19.70000076  32.79999924  56.26999664
C    20.97999954  33.25000000  56.50000000
C    21.25000000  33.75000000  57.81000137
C    20.32999992  33.70999908  58.82999802
C    19.03000069  33.15999985  58.61000061
C    14.96999931  32.25000000  57.77000046
C    14.26000023  32.59999847  58.95000076
C    12.88000011  32.56999969  59.09999847
C    22.62000084  34.27999878  58.16999817
H    23.18347359  33.62380219  58.83332825
H    18.27000046  33.65000153  60.56000137
H    17.02999878  31.94000053  56.06999969
H    19.34000015  32.63000107  55.25000000
H    21.73999977  33.20000076  55.72999954
H    20.59999847  34.24000168  59.73999786
H    12.48000050  32.70000076  60.10000229
H    23.15999985  34.33000183  57.22000122
H    22.47999954  35.27000046  58.61999893
S    11.67000008  31.40000153  55.58000183
C     9.11000061  30.89999962  56.50000000
C    10.27999973  31.60000038  56.66999817
C    10.64000034  32.16999817  57.93000031
C     9.65999985  32.26000214  58.89999771
C     8.34999943  31.78999901  58.66000366
C     7.36999989  31.70999908  59.69999695
C     6.15999985  31.09999847  59.50000000
C     5.84999990  30.40999985  58.29999924
C     6.81999969  30.40999985  57.31999969
C     8.06999969  31.07999992  57.43999863
C    12.07999992  32.37999725  57.97000122
C    12.79999924  32.00999832  56.79999924
C    14.18000031  31.98999786  56.65000153
C     4.44999981  29.89000130  58.09999847
H     3.89549637  30.45872307  57.35355377
H     8.98999977  30.29999924  55.59999847
H     9.94000053  32.66999817  59.86000061
H     7.51999950  32.21999741  60.65000153
H     5.35000038  31.18000031  60.21999741
H     6.60000038  29.94999886  56.35000229
H    14.65000057  31.68999863  55.70999908
H     3.94000006  29.94999886  59.06999969
H     4.51999998  28.84000015  57.78999710
S    15.62999916  33.59999847  53.88999939
C    18.27000046  33.75000000  53.06000137
C    16.98999977  33.32999802  52.78999710
C    16.57999992  32.84000015  51.51000214
C    17.56000137  32.55000305  50.58000183
C    18.89999962  32.92000198  50.84000015
C    19.93000031  32.78000259  49.86999893
C    21.19999886  33.31000137  49.98000336
C    21.51000023  34.06999969  51.13999939
C    20.55999947  34.17000198  52.12999725
C    19.26000023  33.59999847  52.05999756
C    15.14999962  32.57999802  51.47999573
C    14.48999977  33.01000214  52.65999603
C    13.14000034  32.83000183  52.91999817
C    22.92000008  34.47999954  51.52000046
H    23.23282433  33.80458450  52.31627655
H    18.53000069  34.36999893  53.92000198
H    17.26000023  32.00999832  49.68999863
H    19.67000008  32.38999939  48.88999939
H    21.83000183  33.15000153  49.10999680
H    20.78000069  34.72999954  53.04000092
H    12.61000061  33.04999924  53.83999634
H    23.52000046  34.47999954  50.59999847
H    22.79999924  35.54000092  51.77000046
S    11.78999996  31.61999893  49.38000107
C     9.18000031  31.28000069  50.34000015
C    10.46000004  31.75000000  50.54000092
C    10.93000031  32.14999771  51.83000183
C    10.03000069  32.21999741  52.87000275
C     8.71000004  31.73000145  52.70000076
C     7.73000002  31.65999985  53.73000336
C     6.42000008  31.25999832  53.57999802
C     6.00000000  30.89999962  52.27000427
C     6.90000010  30.88000107  51.23000336
C     8.23000050  31.35999870  51.38999939
C    12.38000011  32.30999756  51.86000061
C    13.00000000  31.91999817  50.65000153
C    14.37999916  32.00000000  50.47000122
C     4.53000021  30.59999847  52.08000183
H     4.02697945  31.27305412  51.38569260
H     8.98999977  30.81000137  49.38000107
H    10.29000092  32.57999802  53.87000275
H     8.05000019  32.13999939  54.65000153
H     5.65999985  31.51000023  54.29999924
H     6.63000011  30.50000000  50.25000000
H    14.85999966  31.80000114  49.52000046
H     4.03999996  30.76000023  53.04999924
H     4.51999998  29.54999924  51.79000092
