96

S    15.10000038  32.68000031  60.44000244
C    17.70000076  33.11000061  59.61000061
C    16.48999977  32.49000168  59.36000061
C    16.13000107  32.02000046  58.06000137
C    17.02999878  32.09999847  57.01000214
C    18.31999969  32.63000107  57.25999832
C    19.38999939  32.50000000  56.32999802
C    20.65000153  33.02999878  56.52000046
C    20.95999908  33.48999786  57.83000183
C    20.00999832  33.50000000  58.81999969
C    18.65999985  33.13000107  58.56999969
C    14.68999958  31.78999901  57.95999908
C    14.00000000  32.14999771  59.15000153
C    12.63000011  32.34000015  59.20999908
C    22.34000015  33.87000275  58.29999924
H    22.83030128  33.12388992  58.92531204
H    17.97999954  33.46999741  60.59999847
H    16.67000008  31.84000015  56.02000427
H    19.17000008  32.00999832  55.38999939
H    21.42999840  32.85000229  55.77999878
H    20.29999924  33.86000061  59.79999924
H    12.25999928  32.68000031  60.17000198
H    22.92000008  34.04000092  57.37999725
H    22.27999878  34.80999756  58.85000229
S    11.28999901  31.04000092  55.76000214
C     8.57999992  31.11999893  56.59999847
C     9.90999985  31.38000107  56.83000183
C    10.34999943  31.90000153  58.09000015
C     9.51000023  32.06999969  59.16999817
C     8.18000031  31.60000038  59.02000046
C     7.26000023  31.57999992  60.11000061
C     6.01999998  31.02000046  59.92000198
C     5.59999990  30.55000114  58.64999771
C     6.39999962  30.69999886  57.54000092
C     7.72000027  31.21000099  57.71999741
C    11.80999947  31.97000122  58.13999939
C    12.48000050  31.44000053  57.01000214
C    13.86000061  31.54000092  56.86999893
C     4.25000000  29.87999916  58.50999832
H     3.68507361  30.40202141  57.73769379
H     8.28999996  30.59999847  55.68999863
H     9.96000004  32.36000061  60.11000061
H     7.57000017  32.00000000  61.05999756
H     5.32999992  30.82999992  60.75000000
H     6.12999964  30.36999893  56.53999710
H    14.22999954  31.48999977  55.84999847
H     3.74000025  29.92000198  59.47999954
H     4.38000011  28.81000137  58.27999878
S    15.06000042  33.22999954  54.22999954
C    17.71000099  33.43000031  53.43999863
C    16.44000053  32.97000122  53.15999985
C    16.06999969  32.37999725  51.90999985
C    17.04000092  32.33000183  50.91999817
C    18.31999969  32.88999939  51.11999893
C    19.27000046  32.81999969  50.05000305
C    20.55000114  33.25000000  50.30000305
C    20.88000107  33.95000076  51.49000168
C    19.98999977  33.97000122  52.52999878
C    18.65999985  33.45999908  52.39999771
C    14.63000107  32.20000076  51.77999878
C    13.97999954  32.62000275  52.95999908
C    12.58999920  32.72999954  53.01000214
C    22.29999924  34.43999863  51.70999908
H    22.92506218  33.67998123  52.17879486
H    17.94999886  33.97999954  54.34999847
H    16.77999878  31.96000099  49.93000031
H    19.04999924  32.40999985  49.06999969
H    21.28000069  33.18999863  49.50000000
H    20.28000069  34.20999908  53.54999924
H    12.18999958  33.02999878  53.97999573
H    22.63999939  34.79999924  50.72999954
H    22.21999931  35.30999756  52.36999893
S    11.33999920  31.54000092  49.47999954
C     8.67999935  31.21999931  50.44000244
C     9.98000050  31.61000061  50.63000107
C    10.38000011  32.11999893  51.90000153
C     9.47000027  32.20999908  52.94000244
C     8.11999989  31.86000061  52.74000168
C     7.11999989  32.02999878  53.74000168
C     5.79999971  31.77000046  53.47000122
C     5.32000017  31.24000168  52.25000000
C     6.30000019  31.14000130  51.29000092
C     7.71000004  31.31000137  51.46999741
C    11.82000065  32.29000092  51.93000031
C    12.51000023  32.00999832  50.72000122
C    13.89999962  31.93000031  50.61999893
C     3.86000013  30.95999908  51.98999786
H     3.53475165  31.41959000  51.05667496
H     8.28999996  30.88999939  49.47999954
H     9.81000042  32.59000015  53.90999603
H     7.36999989  32.62000275  54.61999893
H     5.09999990  31.81999969  54.31000137
H     6.00000000  30.82999992  50.30000305
H    14.37999916  31.73000145  49.65999985
H     3.45999980  31.28999901  52.95000076
H     3.58999991  29.89999962  51.91999817
