96

S    14.70000076  32.73999786  60.31999969
C    17.35999870  33.02999878  59.45000076
C    16.10000038  32.50999832  59.26000214
C    15.77000046  31.93000031  57.98999786
C    16.79999924  31.73000145  57.08000183
C    18.06999969  32.34000015  57.23999786
C    19.13999939  32.20999908  56.30000305
C    20.38000107  32.78000259  56.49000168
C    20.62999916  33.47999954  57.69000244
C    19.63999939  33.63999939  58.63999939
C    18.35000038  33.08000183  58.43999863
C    14.34000015  31.78999901  57.80000305
C    13.67000008  32.19000244  58.97999573
C    12.28999996  32.11999893  59.13000107
C    21.96000099  34.15000153  57.94000244
H    22.49785423  33.61922455  58.72555161
H    17.63000107  33.40999985  60.44000244
H    16.48999977  31.27000046  56.14999771
H    19.04999924  31.65999985  55.37000275
H    21.07999992  32.81999969  55.65999985
H    19.95000076  34.13999939  59.54999924
H    11.75000000  32.34999847  60.05000305
H    22.60999870  34.00000000  57.06999969
H    21.76000214  35.19000244  58.18999863
S    11.07999992  30.79000092  55.59000015
C     8.42000008  30.58000183  56.46999741
C     9.68999958  31.04999924  56.65999985
C    10.06000042  31.73999977  57.85999680
C     9.06999969  31.97000122  58.80000305
C     7.78999996  31.40000153  58.66000366
C     6.76000023  31.40000153  59.64000320
C     5.51999998  30.84000015  59.47999954
C     5.19000006  30.13000107  58.29999924
C     6.17000008  30.00000000  57.34000397
C     7.46000004  30.59000015  57.50999832
C    11.51000023  31.81999969  58.01000214
C    12.18000031  31.44000053  56.81999969
C    13.55999947  31.38999939  56.70000076
C     3.81000018  29.54999924  58.06999969
H     3.27710772  29.94078827  57.20315933
H     8.19999981  29.94999886  55.61000061
H     9.30000019  32.21999741  59.82999802
H     6.84000015  32.13000107  60.45000076
H     4.78999996  31.05999947  60.26000214
H     6.05000019  29.34999847  56.47999573
H    14.01999950  31.04000092  55.77999878
H     3.28000021  29.65999985  59.02000046
H     3.91000009  28.47999954  57.85999680
S    14.80000019  33.02999878  54.16999817
C    17.45000076  33.54999924  53.39000320
C    16.22999954  32.95999908  53.13000107
C    15.88999939  32.42000198  51.84999847
C    16.88999939  32.33000183  50.89000320
C    18.13999939  32.93999863  51.11000061
C    19.17000008  32.83000183  50.13000107
C    20.45999908  33.16999817  50.45000076
C    20.75000000  33.81999969  51.68000031
C    19.76000023  34.04999924  52.61000061
C    18.44000053  33.55999756  52.36999893
C    14.47999954  32.11000061  51.63999939
C    13.80000019  32.36000061  52.85999680
C    12.42000008  32.34999847  52.97000122
C    22.11000061  34.38999939  52.01000214
H    22.65384865  33.78174973  52.73274612
H    17.73999977  33.90999985  54.36999893
H    16.65999985  31.67000008  50.06000137
H    19.00000000  32.49000168  49.10999680
H    21.25999832  33.20000076  49.71000290
H    19.88000107  34.50000000  53.59000397
H    11.95000076  32.84000015  53.81999969
H    22.63000107  34.25000000  51.04999924
H    22.11999893  35.40999985  52.41000366
S    11.30000019  31.02999878  49.38000107
C     8.57999992  31.09999847  50.00999832
C     9.88000011  31.18999863  50.43000031
C    10.26999950  31.76000214  51.69000244
C     9.27999973  32.06000137  52.60000229
C     7.96000004  31.67000008  52.27000427
C     6.97000027  31.71999931  53.29000092
C     5.66999960  31.34000015  53.02999878
C     5.26999998  30.82999992  51.77000046
C     6.19999981  30.79999924  50.75000000
C     7.55000019  31.18000031  50.97999954
C    11.71000004  31.90999985  51.84000015
C    12.41000080  31.56999969  50.65000153
C    13.78999901  31.67000008  50.51000214
C     3.84000015  30.45999908  51.49000168
H     3.41305971  30.83001518  50.55784607
H     8.19999981  30.72000122  49.06000137
H     9.61000061  32.27000046  53.61999893
H     7.27999973  32.06999969  54.27000046
H     5.00000000  31.21999931  53.88000107
H     5.89999962  30.55999947  49.73999786
H    14.37000084  31.38999939  49.64000320
H     3.24000001  30.69999886  52.37999725
H     3.88000011  29.36000061  51.39999771
