96

S    15.07999992  32.83000183  60.24000168
C    17.71999931  33.34000015  59.43999863
C    16.43000031  33.02999878  59.09999847
C    15.98000050  32.70000076  57.77999878
C    16.90999985  32.78000259  56.75000000
C    18.27000046  32.99000168  57.04000092
C    19.34999847  32.84000015  56.11999893
C    20.68000031  32.99000168  56.42000198
C    21.01000023  33.51000214  57.70000076
C    20.03000069  33.65000153  58.64999771
C    18.67000008  33.29999924  58.39000320
C    14.55999947  32.36000061  57.75000000
C    13.86999989  32.52999878  58.97999573
C    12.50000000  32.34999847  59.09999847
C    22.37999916  34.05999756  58.02999878
H    22.73685074  33.66032791  58.97922134
H    18.05999947  33.62999725  60.43000031
H    16.53000069  32.34999847  55.83000183
H    19.11000061  32.56999969  55.10000229
H    21.50000000  32.97999954  55.70000076
H    20.23999977  34.11999893  59.61000061
H    12.03999996  32.50999832  60.06999969
H    23.09000015  33.74000168  57.25000000
H    22.46000099  35.15999985  58.01000214
S    11.23000050  31.01000023  55.58000183
C     8.56000042  30.75000000  56.62000275
C     9.88000011  31.14000130  56.72000122
C    10.34000015  31.67000008  57.97000122
C     9.47000027  31.84000015  59.02999878
C     8.19000053  31.21999931  58.99000168
C     7.35000038  31.11999893  60.13999939
C     6.11000013  30.53999901  60.06999969
C     5.64000034  29.97999954  58.85000229
C     6.43000031  30.10000038  57.72999573
C     7.67000008  30.81000137  57.71999741
C    11.77000046  31.94999886  57.97999954
C    12.42000008  31.60000038  56.77000046
C    13.76999950  31.87999916  56.69000244
C     4.21999979  29.51999855  58.66000366
H     3.81462359  29.94671249  57.74256897
H     8.14000034  30.38999939  55.68000031
H     9.85000038  32.14999771  59.99000168
H     7.65999985  31.42999840  61.12999725
H     5.46000004  30.50000000  60.93999863
H     6.21000004  29.59000015  56.79000092
H    14.28999996  31.75000000  55.75000000
H     3.58000016  29.79000092  59.51000214
H     4.21999979  28.43000031  58.50000000
S    11.31999969  28.77000046  52.56000137
C     8.80000019  27.79000092  53.34000015
C    10.11000061  28.06999969  53.66000366
C    10.62000084  27.81999969  54.97000122
C     9.76000023  27.23999977  55.89000320
C     8.39999962  26.94000053  55.63999939
C     7.50000000  26.65999985  56.70000076
C     6.15000010  26.71999931  56.45999908
C     5.68000031  26.87000084  55.13000107
C     6.52999973  27.13000107  54.08000183
C     7.92999983  27.25000000  54.31999969
C    12.03999996  28.13999939  55.01999664
C    12.56000042  28.69999886  53.82999802
C    13.83999920  29.23000145  53.73000336
C     4.23999977  26.70000076  54.71000290
H     3.94081640  25.66710472  54.53191376
H     8.38999939  28.19999886  52.42000198
H    10.06000042  27.19000053  56.93999863
H     7.85000038  26.61999893  57.72999573
H     5.44000053  26.64999962  57.28000259
H     6.11999989  27.36000061  53.09999847
H    14.22999954  29.79999924  52.88999939
H     3.52999973  27.15999985  55.40999985
H     4.15999985  27.27000046  53.76999664
S    15.53999996  28.15999985  57.15000153
C    18.04000092  28.88999939  56.25999832
C    16.68000031  29.07999992  56.14999771
C    16.10999870  29.51999855  54.91000366
C    16.94000053  29.96999931  53.89999771
C    18.35000038  30.02000046  54.08000183
C    19.19000053  30.53999901  53.06000137
C    20.53999901  30.58000183  53.30999756
C    21.11000061  29.99000168  54.47000122
C    20.29999924  29.47999954  55.45999908
C    18.89999962  29.40999985  55.26000214
C    14.72000027  29.09000015  54.80999756
C    14.25000000  28.40999985  55.96000290
C    12.96000004  27.88999939  56.04000092
C    22.62000084  29.86000061  54.54000092
H    22.93435097  29.82427788  55.58307648
H    18.43000031  28.36000061  57.11999893
H    16.62999916  30.34000015  52.93000031
H    18.78999901  30.79000092  52.08000183
H    21.22999954  30.84000015  52.51999664
H    20.79000092  29.23000145  56.39999771
H    12.71000004  27.26000023  56.88000107
H    23.05999947  30.72999954  54.05000305
H    22.86000061  28.94000053  53.99000168
