96

S    15.64000034  32.63000107  60.63000107
C    18.20999908  33.29999924  59.69999695
C    16.97999954  32.70999908  59.47000122
C    16.53000069  32.34999847  58.15999985
C    17.47999954  32.40999985  57.15999985
C    18.81000137  32.85000229  57.36000061
C    19.77000046  32.99000168  56.31999969
C    21.04000092  33.39999771  56.63999939
C    21.38999939  33.81999969  57.95000076
C    20.50000000  33.72000122  59.00000000
C    19.18000031  33.31999969  58.67000198
C    15.07999992  32.27000046  58.09000015
C    14.45000076  32.63000107  59.31000137
C    13.07000065  32.76000214  59.40000153
C    22.76000023  34.40999985  58.16999817
H    23.39871216  33.77838516  58.78741837
H    18.52000046  33.68000031  60.66999817
H    17.05999947  32.19000244  56.18000031
H    19.34999847  32.76000214  55.34000015
H    21.65999985  33.46999741  55.76000214
H    20.78000069  33.93000031  60.02999878
H    12.58999920  32.76000214  60.37000275
H    23.22999954  34.61999893  57.19999695
H    22.75000000  35.40000153  58.62999725
S    11.75000000  31.52000046  55.83000183
C     9.17000008  31.21000099  56.73999786
C    10.42000008  31.71999931  56.98999786
C    10.84000015  32.34999847  58.20999908
C     9.92000008  32.29000092  59.23999786
C     8.60999966  31.80999947  59.02999878
C     7.63999987  31.96000099  60.06000137
C     6.32999992  31.68999863  59.75999832
C     5.91000032  31.22999954  58.47999954
C     6.80999994  31.15999985  57.43999863
C     8.19000053  31.28999901  57.76000214
C    12.28999996  32.50999832  58.27000046
C    12.89999962  32.09000015  57.04999924
C    14.27999973  32.02000046  56.95999908
C     4.53000021  30.68000031  58.22000122
H     4.01872778  31.08475685  57.34657669
H     8.84000015  30.98999977  55.72000122
H    10.27999973  32.54000092  60.22999573
H     8.03999996  32.34999847  60.98999786
H     5.51000023  31.98999786  60.41999817
H     6.51999998  30.84000015  56.44000244
H    14.81999969  31.71999931  56.06999969
H     3.95000005  30.90999985  59.12000275
H     4.48999977  29.57999992  58.15999985
S    15.65000057  33.65999985  54.23999786
C    18.25000000  34.03000259  53.25000000
C    16.97999954  33.52000046  53.09000015
C    16.52000046  32.97999954  51.84999847
C    17.39999962  32.86999893  50.79000092
C    18.72999954  33.31999969  50.97000122
C    19.70000076  33.25000000  49.93000031
C    20.93000031  33.84999847  50.05000305
C    21.32999802  34.50000000  51.24000168
C    20.45999908  34.54999924  52.30999756
C    19.15999985  33.98999786  52.15999985
C    15.06999969  32.78000259  51.79999924
C    14.46000004  33.20000076  53.01000214
C    13.07999992  33.20000076  53.18000031
C    22.70000076  35.11000061  51.43000031
H    23.29170990  34.38283539  51.98606873
H    18.37000084  34.69000244  54.10999680
H    17.15999985  32.52000046  49.79000092
H    19.45999908  32.63000107  49.06999969
H    21.56999969  33.82999802  49.16999817
H    20.73999786  35.16999817  53.15000153
H    12.69000053  33.27000046  54.19000244
H    23.15000153  35.40000153  50.47000122
H    22.69000053  35.97999954  52.11000061
S    11.69000053  31.75000000  49.79999924
C     9.19999981  31.34000015  50.79000092
C    10.38000011  32.02000046  50.97000122
C    10.77999973  32.70000076  52.16999817
C     9.80000019  32.86000061  53.13000107
C     8.53999996  32.21999741  52.97000122
C     7.50000000  32.43999863  53.90999603
C     6.23000050  31.91999817  53.79000092
C     5.88999987  31.19999886  52.62000275
C     6.85999966  31.04000092  51.65000153
C     8.21000004  31.45999908  51.79999924
C    12.22000027  32.85000229  52.12999725
C    12.86999893  32.40999985  50.94999695
C    14.25000000  32.29999924  50.77000046
C     4.44000006  30.88000107  52.31999969
H     4.03414679  31.27161217  51.38724899
H     8.89000034  30.96999931  49.81999969
H     9.96999931  33.38999939  54.06000137
H     7.73000002  33.06000137  54.77000427
H     5.44000053  32.31999969  54.41999817
H     6.58999968  30.76999855  50.63000107
H    14.63999939  31.94999886  49.82999802
H     3.82999992  31.14999962  53.18999863
H     4.46999979  29.79000092  52.28000259
