96

S    15.44999981  32.76000214  60.38999939
C    17.94999886  33.54000092  59.38000107
C    16.75000000  32.90999985  59.18000031
C    16.38000107  32.42000198  57.88999939
C    17.29999924  32.45999908  56.86000061
C    18.61999893  32.95000076  57.05999756
C    19.68000031  32.70000076  56.13999939
C    20.98999977  33.01000214  56.39999771
C    21.24000168  33.77000046  57.57999802
C    20.27000046  33.95000076  58.53000259
C    18.94000053  33.48999786  58.36000061
C    14.94999981  32.11999893  57.88999939
C    14.27999973  32.38999939  59.10999680
C    12.89999962  32.34000015  59.26000214
C    22.65000153  34.25000000  57.87000275
H    23.07024574  33.70866394  58.71761703
H    18.20000076  34.06999969  60.28999710
H    17.15999985  32.00000000  55.87999725
H    19.37000084  32.31999969  55.17000198
H    21.76000214  32.65999985  55.72000122
H    20.48999977  34.38999939  59.50000000
H    12.43000031  32.50000000  60.21999741
H    23.31999969  34.09000015  57.01000214
H    22.67000008  35.33000183  58.02999878
S    11.65999985  31.35999870  55.65000153
C     9.04999924  30.68000031  56.47999573
C    10.31000042  31.11999893  56.79000092
C    10.69000053  31.57999992  58.09000015
C     9.72999954  31.65999985  59.09000015
C     8.38999939  31.28999901  58.81999969
C     7.46000004  31.18999863  59.88999939
C     6.21000004  30.66999817  59.64000320
C     5.84999990  30.17000008  58.36000061
C     6.76000023  30.29999924  57.34000397
C     8.07999992  30.79999924  57.50999832
C    12.10000038  31.90999985  58.18999863
C    12.79000092  31.76000214  56.95999908
C    14.14999962  31.97000122  56.76000214
C     4.42000008  29.76000023  58.09999847
H     4.01338291  30.42342949  57.33670044
H     8.96000004  30.15999985  55.52000046
H    10.06000042  31.87000084  60.10000229
H     7.81000042  31.31000137  60.90999985
H     5.53999996  30.66999817  60.50000000
H     6.50000000  29.90999985  56.35000229
H    14.61999989  32.21999741  55.80999756
H     3.81000018  29.73999977  59.01000214
H     4.34999990  28.72999954  57.72999573
S    12.06999969  29.30000114  52.60000229
C     9.53999996  28.45999908  53.43999863
C    10.90000057  28.47999954  53.64999771
C    11.49000072  28.01000214  54.86999893
C    10.67999935  27.21999931  55.65999985
C     9.27999973  27.13999939  55.45000076
C     8.38999939  26.45999908  56.33999634
C     7.03000021  26.57999992  56.23000336
C     6.51000023  27.10000038  55.00999832
C     7.27999973  27.60999870  54.00000000
C     8.65999985  27.76000023  54.31000137
C    12.89999962  28.34000015  55.00000000
C    13.30999947  29.04999924  53.83999634
C    14.53999996  29.69000053  53.75999832
C     5.01999950  27.32999992  54.93999863
H     4.60740423  26.73956108  54.12192154
H     9.21000004  28.94000053  52.51999664
H    11.02000046  26.70000076  56.55000305
H     8.86999989  25.93000031  57.16999817
H     6.32000017  26.45000076  57.04000092
H     6.96000004  28.05999947  53.06000137
H    14.77000046  30.27000046  52.88000107
H     4.48999977  27.19000053  55.89000320
H     4.86000013  28.38999939  54.72000122
S    16.53000069  28.31999969  56.91999817
C    19.02000046  29.03000069  55.79999924
C    17.64999962  29.05999947  55.77000046
C    16.92000008  29.53000069  54.62999725
C    17.64999962  30.09000015  53.59000397
C    19.05999947  30.13000107  53.67000198
C    19.79999924  30.73999786  52.61000061
C    21.15999985  30.86999893  52.63999939
C    21.88999939  30.32999992  53.73000336
C    21.22999954  29.77999878  54.79999924
C    19.81999969  29.59000015  54.77000427
C    15.47999954  29.34999847  54.73999786
C    15.11000061  28.57000160  55.87999725
C    13.81999969  28.08000183  56.02000427
C    23.36000061  30.61000061  53.95999908
H    23.67365265  30.26070786  54.94372559
H    19.55000114  28.59999847  56.65000153
H    17.13999939  30.61000061  52.77999878
H    19.19999886  31.25999832  51.88000107
H    21.63999939  31.44000053  51.84999847
H    21.61999893  29.68000031  55.80999756
H    13.42000008  27.53999901  56.86999893
H    23.44000053  31.70999908  53.99000168
H    24.04000092  30.23999977  53.18000031
