96

S    14.98000050  32.92000198  60.24000168
C    17.59000015  33.38999939  59.36999893
C    16.38000107  32.77000046  59.15000153
C    16.02000046  32.21999741  57.88000107
C    16.93000031  32.22999954  56.84000015
C    18.19000053  32.83000183  57.04000092
C    19.30999947  32.57999802  56.19999695
C    20.56999969  33.01000214  56.52999878
C    20.79999924  33.80000305  57.69000244
C    19.72999954  34.15000153  58.48999786
C    18.45999908  33.54999924  58.26000214
C    14.57999992  32.00000000  57.81999969
C    13.85000038  32.40999985  58.96999741
C    12.48000050  32.27999878  59.15000153
C    22.21999931  34.22000122  57.97999954
H    22.68178940  33.68716431  58.81122208
H    17.79999924  33.93000031  60.28999710
H    16.76000023  31.47999954  56.06999969
H    19.17000008  31.94999886  55.31999969
H    21.35000038  32.90000153  55.79000092
H    19.90999985  34.76000214  59.36999893
H    11.96000004  32.57999802  60.06000137
H    22.73999977  34.01000214  57.02999878
H    22.34000015  35.30999756  58.02000046
S    11.31999969  30.93000031  55.63999939
C     8.67000008  30.66999817  56.46999741
C     9.96000004  31.04999924  56.77000046
C    10.27999973  31.56999969  58.06000137
C     9.25000000  31.68000031  58.97999573
C     7.92000008  31.25000000  58.75000000
C     6.91999960  31.25000000  59.75999832
C     5.72000027  30.62000084  59.52000046
C     5.44000053  30.09000015  58.22999954
C     6.38999987  30.06000137  57.23999786
C     7.64999962  30.66999817  57.45999908
C    11.72000027  31.80000114  58.09000015
C    12.43999958  31.47999954  56.90999985
C    13.81999969  31.54999924  56.72999954
C     4.09999990  29.43000031  57.98999786
H     3.51834583  30.01874733  57.28066254
H     8.52000046  30.22000122  55.48999786
H     9.48999977  32.02000046  59.98000336
H     7.00000000  31.65999985  60.76000214
H     5.00000000  30.52000046  60.31999969
H     6.24000025  29.54999924  56.29000092
H    14.27000046  31.38000107  55.76000214
H     3.58999991  29.47999954  58.95999908
H     4.19999981  28.42000008  57.56999969
S    15.21000004  33.54000092  54.27999878
C    17.84000015  33.88000107  53.34999847
C    16.55999947  33.39999771  53.13999939
C    16.15999985  32.83000183  51.88999939
C    17.09000015  32.65000153  50.87999725
C    18.40999985  33.09999847  51.11000061
C    19.47000122  33.01000214  50.14999771
C    20.71000099  33.55999756  50.34000015
C    21.12999916  34.04999924  51.59999847
C    20.15999985  34.13000107  52.56999969
C    18.81000137  33.74000168  52.32999802
C    14.73000050  32.56999969  51.91999817
C    14.01999950  33.01000214  53.06999969
C    12.64999962  32.83000183  53.18000031
C    22.47999954  34.69000244  51.86999893
H    22.95543671  34.27133560  52.75700378
H    18.05999947  34.36999893  54.29000092
H    16.79999924  32.20999908  49.93000031
H    19.09000015  32.56000137  49.22999954
H    21.28999901  33.61999893  49.41999817
H    20.45000076  34.52999878  53.54000092
H    12.09000015  33.13999939  54.06000137
H    23.12999916  34.38999939  51.04999924
H    22.52000046  35.77999878  51.88000107
S    11.57999992  31.61999893  49.54999924
C     8.85000038  31.35000038  50.28999710
C    10.14000034  31.73999977  50.56999969
C    10.47999954  32.11000061  51.90999985
C     9.51000023  32.27000046  52.88000107
C     8.17000008  31.87000084  52.62000275
C     7.14999962  31.81999969  53.61000061
C     5.92999983  31.25999832  53.33000183
C     5.65000010  30.72000122  52.04999924
C     6.57999992  30.84000015  51.04000092
C     7.88000011  31.34000015  51.31999969
C    11.90999985  32.29999924  52.11999893
C    12.61999989  31.97000122  50.93999863
C    14.00000000  32.09999847  50.81999969
C     4.23000002  30.29000092  51.75000000
H     3.78954077  30.85123062  50.92591476
H     8.76999950  31.02999878  49.25000000
H     9.75000000  32.73999786  53.82999802
H     7.30000019  32.26000214  54.59999847
H     5.05999994  31.48999977  53.94000244
H     6.23000050  30.45000076  50.07999802
H    14.47000027  31.86000061  49.86999893
H     3.63999987  30.55000114  52.63999939
H     4.38000011  29.20999908  51.65000153
