96

S    15.36999893  33.09999847  60.25000000
C    18.02000046  33.39999771  59.47999954
C    16.77999878  32.90000153  59.19000244
C    16.43000031  32.40000153  57.88999939
C    17.39999962  32.40000153  56.90999985
C    18.71999931  32.85000229  57.15000153
C    19.75000000  32.65999985  56.18999863
C    21.02999878  33.01000214  56.56000137
C    21.31999969  33.61000061  57.81999969
C    20.38999939  33.52000046  58.82999802
C    19.02000046  33.31999969  58.47999954
C    14.98999977  32.19000244  57.77000046
C    14.29999924  32.62000275  58.93000031
C    12.90999985  32.65000153  59.06000137
C    22.67000008  34.20999908  58.11999893
H    23.23284721  33.45478821  58.66859818
H    18.38000107  33.75000000  60.44000244
H    17.15999985  32.15999985  55.87999725
H    19.47000122  32.25000000  55.21999741
H    21.87999916  32.84000015  55.90999985
H    20.58000183  33.68999863  59.87999725
H    12.46999931  32.70000076  60.05000305
H    23.16999817  34.50999832  57.18999863
H    22.59000015  35.13999939  58.69999695
S    11.71000004  31.15999985  55.61999893
C     9.10000038  30.76000023  56.47999573
C    10.34999943  31.28000069  56.73999786
C    10.70000076  32.00999832  57.91999817
C     9.73999977  32.06999969  58.92000198
C     8.39999962  31.67000008  58.68000031
C     7.34000015  31.86000061  59.61000061
C     6.10000038  31.28999901  59.45999908
C     5.84999990  30.61000061  58.23999786
C     6.80999994  30.42000008  57.27000427
C     8.10999966  30.96999931  57.45999908
C    12.10999966  32.36999893  57.95000076
C    12.79999924  31.94000053  56.77999878
C    14.18000031  31.84999847  56.68000031
C     4.48999977  30.00000000  58.01000214
H     4.02975082  30.45316696  57.13198853
H     8.80000019  30.43999863  55.48999786
H     9.92999935  32.43999863  59.92000198
H     7.68000031  32.40999985  60.47999954
H     5.36000013  31.35999870  60.26000214
H     6.63000011  29.76000023  56.42000198
H    14.65999985  31.45000076  55.79000092
H     3.86999989  30.10999870  58.90999603
H     4.59000015  28.95999908  57.70000076
S    16.03999901  33.45000076  53.87000275
C    18.63000107  33.84000015  53.02000046
C    17.40999985  33.27999878  52.75000000
C    16.95000076  32.63999939  51.55000305
C    17.86000061  32.68000031  50.51000214
C    19.12999916  33.29000092  50.68000031
C    20.07999802  33.22000122  49.62999725
C    21.31999969  33.81000137  49.75000000
C    21.73999977  34.36000061  50.98999786
C    20.81999969  34.50000000  52.00000000
C    19.52999878  33.88999939  51.93000031
C    15.52000046  32.40000153  51.51000214
C    14.88999939  32.70000076  52.74000168
C    13.52000046  32.57999802  52.95999908
C    23.16999817  34.75000000  51.29000092
H    23.64626312  34.26662827  52.14300919
H    18.78000069  34.27000046  54.01000214
H    17.53000069  32.16999817  49.61000061
H    19.82999992  32.93000031  48.61000061
H    22.07999992  33.68999863  48.97999573
H    21.22999954  34.73999786  52.97000122
H    13.00000000  32.85000229  53.88000107
H    23.81999969  34.61999893  50.41999817
H    23.08000183  35.81999969  51.52999878
S    12.07999992  31.86000061  49.29999924
C     9.55000019  31.42000008  50.31000137
C    10.78999996  31.97999954  50.51000214
C    11.25000000  32.29000092  51.83000183
C    10.31999969  32.44999695  52.84000015
C     8.97000027  32.06999969  52.62000275
C     7.94000053  32.09999847  53.59000397
C     6.63000011  31.75000000  53.34999847
C     6.32000017  31.09999847  52.12999725
C     7.30999994  30.92000008  51.18999863
C     8.60000038  31.47999954  51.36000061
C    12.71000004  32.29000092  51.86999893
C    13.27999973  32.11000061  50.58000183
C    14.65999985  32.14999771  50.43000031
C     4.94999981  30.48000145  51.93000031
H     4.43263435  30.99736595  51.12205887
H     9.28999996  31.02999878  49.33000183
H    10.71000004  32.83000183  53.76999664
H     8.13000011  32.47000122  54.59999847
H     5.96000004  31.71999931  54.20000076
H     6.91999960  30.45999908  50.27999878
H    15.13000011  32.13000107  49.45000076
H     4.38000011  30.62000084  52.84999847
H     5.03000021  29.40999985  51.72000122
