96

S    15.29999924  32.68000031  60.45999908
C    17.86000061  33.20999908  59.61000061
C    16.65999985  32.59999847  59.33000183
C    16.31000137  32.00000000  58.06999969
C    17.28000069  31.97999954  57.09000015
C    18.53999901  32.57999802  57.34000397
C    19.45000076  32.52999878  56.25000000
C    20.69999886  33.06999969  56.42000198
C    21.04999924  33.61999893  57.68000031
C    20.10999870  33.88000107  58.64999771
C    18.82999992  33.25999832  58.57999802
C    14.85999966  31.96000099  57.91999817
C    14.19000053  32.27000046  59.13000107
C    12.81000042  32.34000015  59.31000137
C    22.46999931  33.95000076  58.06000137
H    22.96180916  33.25861359  58.74425888
H    18.09000015  33.81999969  60.47999954
H    16.98999977  31.60000038  56.11999893
H    19.15999985  31.97000122  55.35999680
H    21.45999908  33.01000214  55.65000153
H    20.35000038  34.43000031  59.54999924
H    12.34000015  32.50000000  60.27000046
H    22.98000145  34.05999756  57.09000015
H    22.46999931  34.90999985  58.59000397
S    11.56000042  31.18000031  55.68999863
C     8.82999992  31.14000130  56.46999741
C    10.15999985  31.31999969  56.77999878
C    10.60999966  31.70999908  58.08000183
C     9.70000076  31.81999969  59.12000275
C     8.34000015  31.51000023  58.88000107
C     7.40999985  31.51000023  59.95999908
C     6.12999964  31.05999947  59.73999786
C     5.71000004  30.69999886  58.43000031
C     6.51999998  30.94000053  57.34000397
C     7.90000010  31.24000168  57.54000092
C    12.02999973  31.97000122  58.20000076
C    12.68000031  31.56999969  57.01000214
C    14.06000042  31.60000038  56.83000183
C     4.30000019  30.22000122  58.18999863
H     3.78297353  30.71577835  57.36842346
H     8.57999992  30.72000122  55.50000000
H    10.01000023  32.13999939  60.11000061
H     7.82000017  31.73000145  60.93999863
H     5.47999954  31.01000023  60.59999847
H     6.15999985  30.69000053  56.35000229
H    14.42999935  31.32999802  55.84999847
H     3.68000007  30.42000008  59.06999969
H     4.28000021  29.13999939  57.97999954
S    15.31999969  33.22000122  54.20000076
C    17.86000061  33.77999878  53.26000214
C    16.61999893  33.23999786  53.00000000
C    16.13999939  32.84000015  51.70999908
C    17.06999969  32.86000061  50.68999863
C    18.39999962  33.23999786  50.97000122
C    19.31999969  33.15999985  49.87999725
C    20.61000061  33.61000061  50.05000305
C    21.07999992  34.03000259  51.31999969
C    20.20999908  34.11000061  52.37999725
C    18.85000038  33.72000122  52.25000000
C    14.70999908  32.55000305  51.72999954
C    14.09000015  32.85000229  52.97000122
C    12.71000004  32.84000015  53.04000092
C    22.39999962  34.77000046  51.46999741
H    22.86991310  34.23600769  52.29590988
H    17.97999954  34.05999756  54.29999924
H    16.95000076  32.40999985  49.71000290
H    19.01000023  32.77000046  48.92000198
H    21.07999992  33.77999878  49.08000183
H    20.38999939  34.73999786  53.25000000
H    12.32999992  33.08000183  54.02999878
H    23.00000000  34.65999985  50.54999924
H    22.29999924  35.84000015  51.68000031
S    11.38000011  31.73999977  49.47999954
C     8.75000000  31.56999969  50.31000137
C    10.03000069  31.97999954  50.61000061
C    10.48999977  32.30999756  51.93000031
C     9.55000019  32.50000000  52.91999817
C     8.22000027  32.14999771  52.57999802
C     7.23999977  32.33000183  53.60000229
C     5.92000008  32.02000046  53.39000320
C     5.50000000  31.45000076  52.15999985
C     6.40999985  31.21000099  51.14999771
C     7.76000023  31.60000038  51.32999802
C    11.94000053  32.47999954  51.93000031
C    12.58999920  32.11999893  50.72000122
C    13.97999954  32.11000061  50.61999893
C     4.07000017  30.95999908  52.04999924
H     3.55102062  31.43632317  51.21820831
H     8.53999996  31.18999863  49.31999969
H     9.72999954  32.75000000  53.95999908
H     7.48000050  32.79000092  54.54999924
H     5.21000004  32.22999954  54.18000031
H     6.15000010  30.88999939  50.13999939
H    14.51000023  31.77000046  49.73999786
H     3.53999996  31.02999878  53.01000214
H     4.21000004  29.87999916  51.97000122
