96

S    15.93000031  32.92000198  60.61999893
C    18.51000023  33.36000061  59.77000427
C    17.23999977  32.95000076  59.41999817
C    16.81999969  32.52999878  58.11999893
C    17.80999947  32.36999893  57.15999985
C    19.10000038  32.93999863  57.34000397
C    20.00999832  33.06000137  56.25999832
C    21.22999954  33.65000153  56.49000168
C    21.64999962  33.93000031  57.81999969
C    20.76999855  33.74000168  58.86000061
C    19.43000031  33.29999924  58.69999695
C    15.39999962  32.26000214  58.04000092
C    14.80000019  32.62000275  59.27999878
C    13.42000008  32.66999817  59.40000153
C    23.05000114  34.40999985  58.13999939
H    23.65736198  33.79549408  58.80452347
H    18.82999992  33.65000153  60.76000214
H    17.52000046  32.04999924  56.17000198
H    19.68000031  32.79000092  55.26000214
H    21.96000099  33.58000183  55.68999863
H    21.09999847  33.90999985  59.87999725
H    13.02000046  32.95999908  60.37000275
H    23.54999924  34.40000153  57.15999985
H    23.11000061  35.43999863  58.52000427
S    12.09000015  31.54000092  55.76000214
C     9.56999969  30.89999962  56.79000092
C    10.80999947  31.45000076  56.98999786
C    11.19999981  32.07999802  58.22000122
C    10.26999950  32.13999939  59.23999786
C     8.94999981  31.68999863  59.02999878
C     7.96000004  31.86000061  60.04000092
C     6.69000053  31.40999985  59.79000092
C     6.32000017  30.66999817  58.62999725
C     7.28999996  30.46999931  57.67000198
C     8.59000015  31.04999924  57.78999710
C    12.64000034  32.26000214  58.29999924
C    13.22999954  31.90999985  57.05999756
C    14.61999989  31.97000122  56.91999817
C     4.90000010  30.23999977  58.34999847
H     4.45218945  30.84418869  57.56099701
H     9.22999954  30.48999977  55.84000015
H    10.53999996  32.44999695  60.25000000
H     8.27000046  32.22999954  61.00999832
H     5.91000032  31.42999840  60.54000092
H     7.07999992  29.94999886  56.73999786
H    15.08999920  31.87999916  55.93999863
H     4.36999989  30.32999992  59.29999924
H     4.79999971  29.18999863  58.04999924
S    12.34000015  29.41999817  52.81000137
C     9.72000027  28.71999931  53.54999924
C    11.06999969  28.68000031  53.81999969
C    11.64999962  28.03999901  54.95999908
C    10.80000019  27.32999992  55.77999878
C     9.39999962  27.29999924  55.56999969
C     8.46000004  26.70999908  56.46999741
C     7.11000013  26.75000000  56.22000122
C     6.61999989  27.46000099  55.08999634
C     7.46999979  28.12999916  54.23999786
C     8.86999989  28.00000000  54.43000031
C    13.05999947  28.36999893  55.13999939
C    13.59000015  29.05999947  54.02000046
C    14.88000011  29.56999969  53.95000076
C     5.13999987  27.79000092  55.01999664
H     4.82031822  27.32113457  54.08937073
H     9.36999989  29.43000031  52.81000137
H    11.21999931  26.63000107  56.50000000
H     8.94999981  26.27000046  57.34000397
H     6.38999987  26.44000053  56.97000122
H     7.13999987  28.95000076  53.61999893
H    15.17000008  30.22999954  53.13000107
H     4.53999996  27.27999878  55.77999878
H     4.99000025  28.87000084  55.06000137
S    16.60000038  28.02999878  57.16999817
C    19.19999886  28.75000000  56.35000229
C    17.84000015  28.78000069  56.13999939
C    17.21999931  29.50000000  55.06999969
C    18.04000092  30.22000122  54.20999908
C    19.44000053  30.05000114  54.27000046
C    20.29999924  30.65999985  53.30999756
C    21.65999985  30.56999969  53.46000290
C    22.25000000  29.96999931  54.61000061
C    21.45000076  29.31999969  55.52000046
C    20.03999901  29.40000153  55.40999985
C    15.80000019  29.21999931  54.93999863
C    15.29999924  28.52000046  56.06999969
C    13.99000072  28.05000114  56.12999725
C    23.74000168  30.10999870  54.79000092
H    24.13142967  29.79685593  55.75789642
H    19.72999954  28.06999969  57.00000000
H    17.71000099  30.81999969  53.36999893
H    19.85000038  31.14999962  52.44999695
H    22.23999977  31.18000031  52.77999878
H    21.88999939  28.85000038  56.39999771
H    13.71000099  27.46999931  57.01000214
H    23.94000053  31.18000031  54.62999725
H    24.25000000  29.57999992  53.97999573
