96

S    14.80000019  32.66999817  60.35999680
C    17.26000023  33.47999954  59.38999939
C    16.04999924  32.86999893  59.13000107
C    15.65000057  32.43000031  57.81999969
C    16.60000038  32.50999832  56.81999969
C    17.93000031  32.92000198  57.09999847
C    19.03000069  32.63999939  56.24000168
C    20.32999992  32.99000168  56.52000046
C    20.59000015  33.67000198  57.74000168
C    19.61000061  33.81000137  58.69999695
C    18.27000046  33.45999908  58.39000320
C    14.22999954  32.11000061  57.76000214
C    13.67000008  32.26000214  59.05000305
C    12.28000069  32.21999741  59.16999817
C    22.01999855  34.06999969  58.02999878
H    22.52560043  33.48606491  58.79907990
H    17.35999870  34.11999893  60.25000000
H    16.32999992  32.06999969  55.86000061
H    18.81000137  31.98999786  55.40000153
H    21.17000198  32.50999832  56.03000259
H    19.86999893  34.06999969  59.72000122
H    11.69000053  32.38999939  60.06999969
H    22.50999832  34.05999756  57.05999756
H    21.93000031  35.09000015  58.41999817
S    10.95000076  31.52000046  55.43000031
C     8.43000031  30.79000092  56.39999771
C     9.64999962  31.37000084  56.63000107
C    10.03999901  31.77000046  57.94000244
C     9.11999989  31.84000015  58.97999573
C     7.85000038  31.25999832  58.75999832
C     6.83000040  31.22999954  59.75000000
C     5.56999969  30.71000099  59.52999878
C     5.32000017  30.00999832  58.31999969
C     6.25999975  30.05000114  57.31999969
C     7.48000050  30.76999855  57.45999908
C    11.46999931  32.02999878  58.04999924
C    12.05999947  31.84000015  56.77999878
C    13.45000076  31.87000084  56.63000107
C     3.91999984  29.48999786  58.08000183
H     3.41655469  29.98635483  57.25037766
H     8.19999981  30.20999908  55.51000214
H     9.40999985  32.18000031  59.97000122
H     6.97000027  31.61000061  60.76000214
H     4.80999994  30.69999886  60.30000305
H     6.05999994  29.53000069  56.38999939
H    13.86000061  31.73000145  55.63999939
H     3.28000021  29.71999931  58.95000076
H     3.86000013  28.39999962  57.93000031
S    14.68999958  33.55999756  53.94000244
C    17.38000107  33.68000031  53.33000183
C    16.11999893  33.34999847  52.90000153
C    15.73999977  32.97999954  51.56999969
C    16.75000000  32.95000076  50.61999893
C    18.09000015  33.20999908  51.00999832
C    19.15999985  33.06000137  50.07999802
C    20.43999863  33.38000107  50.47000122
C    20.76999855  33.80000305  51.77999878
C    19.75000000  33.90999985  52.70000076
C    18.39999962  33.61000061  52.35000229
C    14.29999924  32.90000153  51.40999603
C    13.60000038  33.02999878  52.63999939
C    12.22000027  33.02999878  52.74000168
C    22.17000008  34.29000092  52.11999893
H    22.68308258  33.54888153  52.73284912
H    17.64000130  34.04999924  54.31999969
H    16.46999931  32.63999939  49.61999893
H    19.03000069  32.56000137  49.12000275
H    21.19999886  33.13999939  49.72999954
H    19.92000008  34.45000076  53.61999893
H    11.76000023  33.25999832  53.69999695
H    22.80999947  34.40000153  51.24000168
H    22.13999939  35.26000214  52.62000275
S    11.09000015  32.09999847  49.03999710
C     8.47000027  31.56999969  49.86000061
C     9.72999954  32.00999832  50.18000031
C    10.07999992  32.36000061  51.52000046
C     9.09000015  32.36000061  52.49000168
C     7.77999973  31.90000153  52.21000290
C     6.77999973  31.93000031  53.22999954
C     5.50000000  31.55999947  52.88999939
C     5.21000004  30.97999954  51.63000107
C     6.15999985  31.00000000  50.63000107
C     7.50000000  31.42000008  50.87999725
C    11.50000000  32.65000153  51.59999847
C    12.18999958  32.55000305  50.35999680
C    13.55999947  32.70000076  50.24000168
C     3.88999987  30.34000015  51.25999832
H     3.42875576  30.97154999  50.50072098
H     8.22000027  31.21000099  48.86000061
H     9.44000053  32.77000046  53.43999863
H     7.03999996  32.26000214  54.22999954
H     4.72000027  31.68999863  53.62999725
H     5.89999962  30.75000000  49.61000061
H    14.18000031  32.59000015  49.34999847
H     3.26999998  30.30999947  52.16999817
H     4.13999987  29.34999847  50.86999893
