96

S    15.21000004  33.34999847  60.45999908
C    17.81999969  33.69999695  59.55999756
C    16.59000015  33.09999847  59.38000107
C    16.22999954  32.54000092  58.11999893
C    17.18000031  32.44999695  57.11999893
C    18.48999977  32.93999863  57.32999802
C    19.51000023  32.75000000  56.36000061
C    20.76000023  33.29000092  56.52999878
C    21.04999924  34.06999969  57.68000031
C    20.06999969  34.27999878  58.61999893
C    18.78999901  33.68000031  58.52000427
C    14.78000069  32.37999725  58.01000214
C    14.13000011  32.68000031  59.22999954
C    12.75000000  32.65000153  59.38999939
C    22.50999832  34.36999893  57.95000076
H    22.84333038  33.98702240  58.91453171
H    17.95999908  34.36000061  60.40999985
H    16.92000008  31.94999886  56.18999863
H    19.34000015  32.09000015  55.51000214
H    21.56999969  32.95999908  55.87999725
H    20.15999985  34.72999954  59.61000061
H    12.36999989  32.90999985  60.38000107
H    23.01000214  33.95999908  57.06999969
H    22.60000038  35.45999908  57.95000076
S    11.57999992  31.21999931  55.79999924
C     9.11000061  30.38000107  56.77000046
C    10.31999969  30.97999954  57.02000046
C    10.64000034  31.59000015  58.27999878
C     9.59000015  31.77000046  59.15999985
C     8.31999969  31.18999863  58.95999908
C     7.30000019  31.35999870  59.93999863
C     6.01000023  30.97999954  59.69999695
C     5.73000002  30.29000092  58.48999786
C     6.70000029  30.15999985  57.50999832
C     8.05999947  30.51000214  57.71999741
C    12.00000000  32.11000061  58.34000015
C    12.61999989  31.84999847  57.09000015
C    13.97999954  32.09000015  56.90000153
C     4.32999992  29.76000023  58.31999969
H     3.74086523  30.31364441  57.58890533
H     8.96000004  29.87999916  55.81999969
H     9.72000027  32.27999878  60.12000275
H     7.53999996  31.80999947  60.90999985
H     5.32999992  31.09000015  60.54000092
H     6.40999985  29.72999954  56.56000137
H    14.40000057  31.93000031  55.90999985
H     3.86999989  29.82000160  59.31999969
H     4.41000032  28.68999863  58.09000015
S    11.97999954  29.23000145  52.69000244
C     9.40999985  28.34000015  53.40000153
C    10.73999977  28.48999977  53.72000122
C    11.30000019  27.88999939  54.88999939
C    10.40999985  27.23999977  55.72999954
C     9.01000023  27.25000000  55.56999969
C     8.19000053  26.63999939  56.56000137
C     6.84000015  26.70999908  56.30000305
C     6.32000017  27.11000061  55.04000092
C     7.11000013  27.72000122  54.09000015
C     8.50000000  27.86000061  54.36999893
C    12.71000004  28.19000053  55.04000092
C    13.21000004  28.92000008  53.93000031
C    14.53999996  29.31999969  53.80000305
C     4.86999989  26.80999947  54.75000000
H     4.51546049  27.25671768  53.82110596
H     9.13000011  28.68999863  52.41000366
H    10.72000027  26.61000061  56.56999969
H     8.59000015  26.02999878  57.36000061
H     6.21000004  26.32999802  57.09999847
H     6.84000015  28.00000000  53.08000183
H    14.93000031  29.71999931  52.87000275
H     4.61999989  25.73999786  54.65000153
H     4.30999994  27.13000107  55.63999939
S    16.28000069  27.75000000  56.97000122
C    18.81000137  28.69999886  56.19999695
C    17.46000099  28.61999893  55.96000290
C    16.84999847  29.23999977  54.82999802
C    17.64999962  29.87999916  53.89999771
C    19.04999924  29.97999954  54.09999847
C    19.98999977  30.59000015  53.22000122
C    21.35000038  30.55000114  53.43000031
C    21.90000153  30.07999802  54.65000153
C    21.02000046  29.51999855  55.54999924
C    19.63000107  29.43000031  55.30000305
C    15.42000008  28.95999908  54.82999802
C    14.92000008  28.26999855  55.96000290
C    13.55999947  28.00000000  56.12999725
C    23.39999962  29.87999916  54.78000259
H    23.82694054  30.25001526  55.71215820
H    19.15999985  28.42000008  57.18000031
H    17.23999977  30.36999893  53.02000046
H    19.50000000  31.02999878  52.36000061
H    22.04000092  30.88999939  52.65999603
H    21.34000015  28.81999969  56.31999969
H    13.17999935  27.43000031  56.97999954
H    23.85999870  30.29000092  53.88000107
H    23.54999924  28.78999901  54.78000259
