96

S    15.18000031  33.58000183  60.28999710
C    17.85000038  33.81000137  59.43999863
C    16.60000038  33.27000046  59.26000214
C    16.26000023  32.56000137  58.06000137
C    17.20000076  32.47000122  57.04999924
C    18.52000046  32.95000076  57.22999954
C    19.54000092  32.77000046  56.25000000
C    20.76999855  33.34000015  56.46999741
C    21.11999893  33.91999817  57.71999741
C    20.20000076  33.98999786  58.73000336
C    18.86999893  33.52999878  58.50000000
C    14.85000038  32.20000076  57.98999786
C    14.15999985  32.72999954  59.10999680
C    12.77999973  32.66999817  59.23999786
C    22.53000069  34.43999863  57.91999817
H    23.05045509  33.96945190  58.75415039
H    18.20999908  34.22999954  60.37000275
H    17.09000015  31.84999847  56.16000366
H    19.34000015  32.27999878  55.30000305
H    21.48999977  33.41999817  55.66999817
H    20.43999863  34.48999786  59.66999817
H    12.28000069  33.13999939  60.08999634
H    23.08000183  34.13000107  57.02000046
H    22.62000084  35.52999878  57.97999954
S    11.56000042  31.28000069  55.75000000
C     8.97000027  31.04000092  56.55000305
C    10.19000053  31.61999893  56.83000183
C    10.55999947  32.20000076  58.08000183
C     9.56999969  32.30999756  59.03999710
C     8.30000019  31.71999931  58.82999802
C     7.26000023  31.84000015  59.79000092
C     6.05000019  31.21999931  59.56999969
C     5.78000021  30.55000114  58.36000061
C     6.71000004  30.52000046  57.35000229
C     7.99000025  31.11000061  57.56000137
C    12.01000023  32.25000000  58.15000153
C    12.71000004  31.87000084  56.97000122
C    14.09000015  31.83000183  56.88000107
C     4.34999990  30.17000008  58.02999878
H     3.81449485  30.85544586  57.37311554
H     8.82999992  30.45000076  55.65000153
H     9.89000034  32.65000153  60.01999664
H     7.46000004  32.36000061  60.72000122
H     5.19999981  31.30000114  60.24000168
H     6.47000027  30.31999969  56.31000137
H    14.57999992  31.60000038  55.93000031
H     3.79999995  30.12000084  58.97999573
H     4.34999990  29.15999985  57.60000229
S    11.26000023  29.14999962  52.80000305
C     8.64000034  28.51000023  53.57999802
C    10.00000000  28.43000031  53.81000137
C    10.53999996  27.93000031  55.04000092
C     9.64999962  27.60000038  56.04000092
C     8.25000000  27.63000107  55.84000015
C     7.31999969  27.32999992  56.88000107
C     5.97000027  27.39000130  56.65999985
C     5.49000025  27.78000069  55.38999939
C     6.32999992  28.12999916  54.34999847
C     7.73000002  28.06999969  54.56999969
C    11.98999977  28.05999947  55.10000229
C    12.51000023  28.78000069  54.00000000
C    13.81000042  29.27000046  53.99000168
C     4.00000000  27.81999969  55.12000275
H     3.69942093  26.98267174  54.49021530
H     8.30000019  28.97999954  52.65999603
H    10.03000069  27.11000061  56.93000031
H     7.81000042  26.94000053  57.77000046
H     5.32000017  26.97000122  57.43000031
H     5.98000002  28.38999939  53.36000061
H    14.09000015  29.84000015  53.09999847
H     3.30000019  27.81999969  55.96000290
H     3.78999996  28.75999832  54.59000015
S    15.40999985  27.86999893  57.36999893
C    18.01000023  28.69999886  56.59999847
C    16.64999962  28.69999886  56.40999603
C    16.09000015  29.31999969  55.25000000
C    16.90000153  29.93999863  54.31000137
C    18.30000114  29.86999893  54.45999908
C    19.22999954  30.35000038  53.48999786
C    20.58000183  30.19000053  53.69999695
C    21.09000015  29.54999924  54.86000061
C    20.27000046  29.14999962  55.89000320
C    18.88000107  29.25000000  55.63000107
C    14.70000076  28.95999908  55.01999664
C    14.19000053  28.21000099  56.11999893
C    12.84000015  27.90999985  56.20999908
C    22.53999901  29.11999893  54.79000092
H    23.07416534  29.64704323  55.58056641
H    18.52000046  28.19999886  57.42000198
H    16.47999954  30.15000153  53.33000183
H    18.82999992  30.78000069  52.57999802
H    21.30000114  30.42000008  52.93000031
H    20.65999985  28.48999977  56.65999985
H    12.46999931  27.53000069  57.15999985
H    23.00000000  29.25000000  53.81000137
H    22.52000046  28.03999901  54.93000031
