96

S    14.30999947  33.58000183  60.33000183
C    16.97999954  33.62999725  59.45999908
C    15.69000053  33.20000076  59.27999878
C    15.29999924  32.52000046  58.08000183
C    16.27000046  32.34000015  57.11000061
C    17.61999893  32.73999786  57.28000259
C    18.60000038  32.56000137  56.25999832
C    19.89999962  32.95000076  56.52000046
C    20.25000000  33.77000046  57.62000275
C    19.29999924  33.97999954  58.59000397
C    18.00000000  33.40999985  58.48999786
C    13.85000038  32.38999939  58.00000000
C    13.19000053  32.83000183  59.16999817
C    11.80999947  32.78000259  59.27999878
C    21.67000008  34.25000000  57.81999969
H    22.21061897  33.55288696  58.46020508
H    17.21999931  34.13000107  60.38999939
H    15.97000027  31.98999786  56.12999725
H    18.34000015  32.13000107  55.30000305
H    20.65999985  32.70999908  55.77999878
H    19.60000038  34.48999786  59.50000000
H    11.36999989  33.11999893  60.21999741
H    22.11000061  34.29000092  56.81000137
H    21.63999939  35.25000000  58.26000214
S    10.62999916  31.22999954  55.79999924
C     8.01000023  30.88999939  56.58000183
C     9.23999977  31.42000008  56.88000107
C     9.64999962  32.02999878  58.11000061
C     8.73000050  32.04999924  59.13999939
C     7.44999981  31.48999977  58.93000031
C     6.44000006  31.55999947  59.93000031
C     5.15999985  31.09999847  59.75000000
C     4.88000011  30.38999939  58.54999924
C     5.84000015  30.27000046  57.57999802
C     7.07000017  30.98999977  57.63000107
C    11.07999992  32.29999924  58.18999863
C    11.73999977  31.96000099  56.97999954
C    13.12999916  31.90999985  56.90000153
C     3.48000002  29.92000198  58.27000046
H     3.16794610  30.19659424  57.26291656
H     7.73999977  30.15000153  55.83000183
H     9.02999973  32.25000000  60.17000198
H     6.65999985  32.15999985  60.81999969
H     4.33999968  31.35999870  60.40999985
H     5.60999966  29.60000038  56.75000000
H    13.63000011  31.65999985  55.97000122
H     2.79000020  30.43999863  58.95000076
H     3.32999992  28.84000015  58.36999893
S    10.44000053  28.90000153  52.37999725
C     7.79999971  28.29000092  53.25000000
C     9.17000008  28.23999786  53.43000031
C     9.72000027  27.70999908  54.64000320
C     8.96000004  27.03000069  55.56999969
C     7.55999994  26.97000122  55.34999847
C     6.67999983  26.38999939  56.30000305
C     5.35000038  26.22999954  55.98999786
C     4.76999998  26.73999977  54.79000092
C     5.59000015  27.52000046  54.01000214
C     6.98999977  27.65000153  54.20999908
C    11.13999939  27.98000145  54.79999924
C    11.64000034  28.65999985  53.66000366
C    12.97000027  29.07999992  53.61000061
C     3.33999991  26.35000038  54.50000000
H     2.91450763  26.88186646  53.64901352
H     7.36999989  28.92000008  52.47000122
H     9.36999989  26.48999977  56.42000198
H     7.07000017  25.92000008  57.21000290
H     4.69999981  25.84000015  56.76000214
H     5.19999981  28.01000214  53.11999893
H    13.32999992  29.59000015  52.72999573
H     3.31999993  25.26000023  54.31000137
H     2.82000017  26.60000038  55.43000031
S    14.48999977  27.80999947  57.12999725
C    17.05000114  28.52000046  56.47999573
C    15.72000027  28.59999847  56.12999725
C    15.19999981  29.15999985  54.92000198
C    16.06999969  29.80999947  54.06000137
C    17.45000076  29.76000023  54.38000107
C    18.40999985  30.13999939  53.40000153
C    19.78000069  30.06999969  53.52000427
C    20.20999908  29.54999924  54.77000427
C    19.37000084  28.98999977  55.70000076
C    17.95999908  29.06999969  55.54000092
C    13.80000019  28.82999802  54.71000290
C    13.30000019  28.16999817  55.86999893
C    12.00000000  27.67000008  55.86000061
C    21.68000031  29.20999908  54.92000198
H    22.20783234  29.75209618  55.70461655
H    17.39999962  27.95000076  57.32999802
H    15.70000076  30.20999908  53.11999893
H    18.01000023  30.53999901  52.48000336
H    20.38000107  30.43999863  52.70000076
H    19.82999992  28.48999977  56.53999710
H    11.73999977  27.06000137  56.70999908
H    22.18000031  29.30999947  53.95000076
H    21.80000114  28.12999916  55.04000092
