96

S    15.39999962  32.72999954  60.47999954
C    18.05999947  33.25000000  59.62999725
C    16.80999947  32.70999908  59.40999985
C    16.43000031  32.13000107  58.15000153
C    17.39999962  32.04000092  57.16999817
C    18.71999931  32.50999832  57.38999939
C    19.69000053  32.44999695  56.35000229
C    20.90999985  33.06000137  56.50000000
C    21.28999901  33.59000015  57.76000214
C    20.32999992  33.80000305  58.72000122
C    19.04999924  33.20000076  58.61000061
C    15.00000000  31.97000122  57.95000076
C    14.30999947  32.27999878  59.15000153
C    12.93000031  32.34000015  59.26000214
C    22.69000053  34.11999893  58.01000214
H    23.22248840  33.64431000  58.83358002
H    18.30000114  33.81999969  60.52000046
H    17.12000084  31.55999947  56.24000168
H    19.32999992  32.00999832  55.41999817
H    21.60000038  33.02000046  55.66999817
H    20.66999817  34.27000046  59.64000320
H    12.48999977  32.63999939  60.20999908
H    23.26999855  34.00000000  57.09000015
H    22.63000107  35.20000076  58.18999863
S    11.68000031  31.12999916  55.68000031
C     8.98999977  30.86000061  56.50000000
C    10.29000092  31.19999886  56.77999878
C    10.73999977  31.67000008  58.06000137
C     9.82999992  31.64999962  59.09999847
C     8.47000027  31.32999802  58.85000229
C     7.48000050  31.28000069  59.87999725
C     6.21000004  30.79999924  59.69999695
C     5.84000015  30.35000038  58.40000153
C     6.76000023  30.27000046  57.37999725
C     8.03999996  30.86999893  57.56000137
C    12.15999985  31.98999786  58.13999939
C    12.81999969  31.68999863  56.91999817
C    14.21000004  31.63999939  56.84000015
C     4.55999994  29.56000137  58.27000046
H     3.95316005  30.08830833  57.53465271
H     8.76000023  30.40999985  55.54000092
H    10.06999969  31.80000114  60.14999771
H     7.77999973  31.61999893  60.86999893
H     5.47999954  30.78000069  60.51000214
H     6.56000042  29.64999962  56.52000046
H    14.65000057  31.40000153  55.87999725
H     3.95000005  29.47999954  59.18000031
H     4.88999987  28.59999847  57.84999847
S    15.57999992  33.09999847  54.10999680
C    18.15000153  33.70999908  53.41999817
C    16.95999908  33.15000153  53.01000214
C    16.59000015  32.75000000  51.68000031
C    17.61999893  32.59999847  50.77000046
C    18.86999893  33.15999985  51.13999939
C    19.84000015  33.29999924  50.10000229
C    21.01000023  33.98999786  50.28999710
C    21.32999802  34.56000137  51.56000137
C    20.34000015  34.52999878  52.50999832
C    19.11000061  33.82999802  52.37999725
C    15.15999985  32.52999878  51.52999878
C    14.48999977  32.79999924  52.75000000
C    13.10999966  32.88000107  52.88000107
C    22.73999977  34.97999954  51.88999939
H    23.35714722  34.27772903  52.45039749
H    18.31999969  34.15000153  54.40000153
H    17.35000038  32.36999893  49.75000000
H    19.55000114  32.90000153  49.13999939
H    21.77000046  33.91999817  49.52000046
H    20.45000076  35.13000107  53.41999817
H    12.71999931  33.11000061  53.87000275
H    23.25000000  35.00999832  50.91999817
H    22.70999908  35.98999786  52.31999969
S    11.84999943  31.70000076  49.29999924
C     9.26000023  31.37000084  50.15999603
C    10.50000000  31.90999985  50.43000031
C    10.84000015  32.47999954  51.70000076
C     9.84000015  32.62000275  52.63999939
C     8.52999973  32.13000107  52.39999771
C     7.53999996  32.09999847  53.43000031
C     6.39999962  31.35000038  53.29000092
C     6.17999983  30.55999947  52.12999725
C     7.09999990  30.61000061  51.11000061
C     8.27999973  31.40000153  51.18999863
C    12.28999996  32.54000092  51.79999924
C    12.96000004  32.23999786  50.58000183
C    14.34000015  32.18000031  50.45000076
C     4.80999994  29.97999954  51.86999893
H     4.24857807  30.49167442  51.08827209
H     9.02999973  30.95999908  49.18000031
H    10.14000034  32.93000031  53.62999725
H     7.83999968  32.44999695  54.41999817
H     5.52999973  31.51000023  53.92000198
H     6.85999966  29.92000198  50.30000305
H    14.84000015  31.84999847  49.54000092
H     4.11000013  29.97999954  52.70999908
H     5.01999950  28.92999840  51.63000107
