96

S    15.26999950  32.90000153  60.50000000
C    17.78000069  33.65999985  59.54000092
C    16.53000069  33.15000153  59.27999878
C    16.10999870  32.56000137  58.04000092
C    17.04000092  32.56999969  57.02000046
C    18.30000114  33.16999817  57.22000122
C    19.30999947  33.15000153  56.22000122
C    20.55999947  33.67000198  56.45000076
C    20.94000053  34.18000031  57.71999741
C    19.98999977  34.29999924  58.72000122
C    18.68999863  33.79000092  58.47000122
C    14.72000027  32.11999893  58.06000137
C    14.09000015  32.31999969  59.31000137
C    12.69999981  32.29000092  59.43000031
C    22.34999847  34.61000061  58.04000092
H    22.82803535  34.07488632  58.86050797
H    18.05999947  33.84000015  60.58000183
H    16.87000084  32.11999893  56.04999924
H    19.17000008  32.50000000  55.35999680
H    21.34000015  33.61000061  55.70000076
H    20.19000053  34.61000061  59.73999786
H    12.34000015  32.65999985  60.38000107
H    22.86999893  34.57999802  57.06999969
H    22.34000015  35.68000031  58.29999924
S    11.49000072  31.09999847  55.84999847
C     8.82000065  31.09999847  56.53999710
C    10.08999920  31.51000023  56.86000061
C    10.44999981  31.93000031  58.18000031
C     9.52000046  31.90999985  59.20999908
C     8.19000053  31.53000069  58.90999603
C     7.22000027  31.35999870  59.93000031
C     5.95000029  30.90999985  59.65999985
C     5.69000006  30.36000061  58.37999725
C     6.57000017  30.52000046  57.32999802
C     7.86000013  31.07999992  57.57999802
C    11.89000034  32.06000137  58.30999756
C    12.56999969  31.73000145  57.11000061
C    13.94999981  31.70000076  56.97000122
C     4.40000010  29.61999893  58.09000015
H     3.86287022  30.19246674  57.33377838
H     8.71999931  30.56999969  55.59000015
H     9.88000011  31.93000031  60.24000168
H     7.37999964  31.81999969  60.90000153
H     5.19999981  30.97999954  60.45000076
H     6.32999992  30.02000046  56.39999771
H    14.42999935  31.48999977  56.00999832
H     3.81000018  29.54999924  59.01000214
H     4.55999994  28.57000160  57.83000183
S    10.80000019  29.09000015  52.87000275
C     8.30000019  28.31000137  53.77999878
C     9.64999962  28.39999962  54.02999878
C    10.26000023  27.82999992  55.20000076
C     9.46000004  27.25000000  56.17000198
C     8.05999947  27.22999954  55.91999817
C     7.23000002  26.45999908  56.77000046
C     5.88999987  26.27000046  56.52999878
C     5.26999998  26.77000046  55.35999680
C     6.06999969  27.37999916  54.40999985
C     7.44999981  27.62000084  54.68000031
C    11.69999981  28.02000046  55.17000198
C    12.11999989  28.65999985  53.97999573
C    13.45000076  29.05999947  53.85000229
C     3.88000011  26.30000114  55.00999832
H     3.53724051  26.65704155  54.03884506
H     7.90000010  28.81000137  52.90000153
H     9.94000053  26.83000183  57.04000092
H     7.63999987  25.82999992  57.56000137
H     5.28999996  25.52000046  57.04999924
H     5.73999977  27.59000015  53.40000153
H    13.80000019  29.54999924  52.95000076
H     3.98000002  25.20000076  55.04000092
H     3.15000010  26.47999954  55.80999756
S    15.32999992  27.67000008  56.98999786
C    17.77000046  28.92999840  56.25000000
C    16.44000053  28.67000198  56.03000259
C    15.77999973  29.17000008  54.86000061
C    16.56999969  29.86999893  53.95999908
C    17.97000122  30.05000114  54.10999680
C    18.70000076  30.76000023  53.13000107
C    20.05000114  30.96999931  53.23999786
C    20.71000099  30.53999901  54.41999817
C    19.98999977  29.92000198  55.40999985
C    18.60000038  29.63000107  55.34000015
C    14.39000034  28.72999954  54.82999802
C    13.94000053  27.96999931  55.93999863
C    12.61000061  27.60000038  56.13999939
C    22.21999931  30.48000145  54.45999908
H    22.58867264  30.38074303  55.48094177
H    18.20999908  28.38999939  57.09000015
H    16.06999969  30.39999962  53.15999985
H    18.12000084  31.21000099  52.32999802
H    20.55999947  31.52000046  52.45999908
H    20.52000046  29.63999939  56.31999969
H    12.28000069  26.97000122  56.95999908
H    22.60999870  31.40000153  54.01000214
H    22.65000153  29.70000076  53.81999969
