96

S    15.01999950  32.88000107  60.28999710
C    17.68000031  32.93999863  59.38999939
C    16.38000107  32.54000092  59.20000076
C    15.90000057  32.27999878  57.87000275
C    16.76000023  32.22999954  56.79000092
C    18.12999916  32.55000305  56.95999908
C    19.06999969  32.57999802  55.90000153
C    20.36000061  33.00000000  56.14999771
C    20.79000092  33.40999985  57.43999863
C    19.89999962  33.34999847  58.47999954
C    18.55999947  32.90000153  58.29000092
C    14.45000076  32.27000046  57.81999969
C    13.80000019  32.63999939  59.02000046
C    12.42000008  32.68000031  59.15999985
C    22.18000031  34.01000214  57.56000137
H    22.82681084  33.34186554  58.12862396
H    17.97999954  33.48999786  60.28999710
H    16.39999962  32.00000000  55.79000092
H    18.71000099  32.21999741  54.93999863
H    21.09000015  32.85000229  55.35999680
H    20.23999977  33.77000046  59.43000031
H    11.90000057  32.97000122  60.06999969
H    22.53000069  34.20000076  56.53999710
H    22.15999985  34.97000122  58.08000183
S    11.28000069  31.25000000  55.59000015
C     8.69000053  30.75000000  56.56000137
C     9.96000004  31.21000099  56.77999878
C    10.31000042  31.78999901  58.04000092
C     9.28999996  31.97000122  58.95999908
C     7.95000029  31.57999992  58.72000122
C     6.89000034  31.80999947  59.62999725
C     5.64000034  31.27000046  59.43999863
C     5.40999985  30.45000076  58.29999924
C     6.35999966  30.29999924  57.31999969
C     7.63000011  30.90999985  57.49000168
C    11.72000027  32.14999771  58.06999969
C    12.35999966  31.90000153  56.83000183
C    13.73999977  31.96000099  56.65000153
C     4.03999996  29.82000160  58.22999954
H     3.47857904  30.33167458  57.44827271
H     8.52000046  30.30999947  55.56999969
H     9.44000053  32.34000015  59.97000122
H     7.05999947  32.27000046  60.59999847
H     4.90999985  31.31999969  60.24000168
H     6.19000006  29.73999977  56.39999771
H    14.13000011  31.57999992  55.70999908
H     3.55999994  29.77999878  59.20999908
H     4.18000031  28.78999901  57.85999680
S    11.54000092  28.97999954  52.81000137
C     9.01000023  28.19000053  53.74000168
C    10.38000011  28.18000031  53.88999939
C    11.03000069  27.57999802  55.01999664
C    10.19999981  26.98999786  55.97000122
C     8.80000019  26.94000053  55.81999969
C     7.94000053  26.51000023  56.88000107
C     6.58999968  26.37000084  56.66999817
C     6.01999998  26.93000031  55.48999786
C     6.76000023  27.49000168  54.47999954
C     8.17000008  27.50000000  54.65999985
C    12.46000099  27.84000015  55.04000092
C    12.86999893  28.59999847  53.92000198
C    14.13000011  29.18000031  53.82999802
C     4.51999998  27.13000107  55.45999908
H     4.07555771  26.80025291  54.52093887
H     8.75000000  28.80000114  52.88999939
H    10.64000034  26.84999847  56.95000076
H     8.36999989  26.55999947  57.87000275
H     5.91000032  26.22999954  57.50999832
H     6.37000036  28.09000015  53.66000366
H    14.39000034  29.77000046  52.95999908
H     4.00999975  26.70999908  56.32999802
H     4.50000000  28.22999954  55.48999786
S    16.01000023  28.11000061  57.15000153
C    18.54999924  28.67000198  56.09000397
C    17.18000031  28.75000000  55.97999954
C    16.52000046  29.18000031  54.78000259
C    17.27000046  29.71999931  53.75999832
C    18.68000031  29.57999992  53.81000137
C    19.50000000  30.25000000  52.85999680
C    20.79999924  30.59000015  53.16999817
C    21.45000076  29.99000168  54.27999878
C    20.76000023  29.13999939  55.12000275
C    19.34000015  29.07999992  54.98000336
C    15.08999920  28.90000153  54.81999969
C    14.65999985  28.26000023  56.00999832
C    13.36999989  27.73999977  56.09000397
C    22.82999992  30.52000046  54.58000183
H    23.32645035  29.95262718  55.36722946
H    19.07999992  28.45999908  57.01000214
H    16.70999908  30.23999977  52.98999786
H    19.11999893  30.69999886  51.95000076
H    21.40999985  31.31000137  52.63000107
H    21.21000099  28.68999863  56.00000000
H    13.07000065  27.20000076  56.97999954
H    22.76000023  31.54000092  54.97000122
H    23.52000046  30.59000015  53.73000336
