96

S    14.78999996  32.97000122  60.19000244
C    17.38999939  33.45999908  59.22000122
C    16.18000031  32.80999756  59.09999847
C    15.76000023  32.13999939  57.90999985
C    16.72999954  32.04000092  56.93000031
C    18.01000023  32.65000153  57.00000000
C    18.94000053  32.61000061  55.91999817
C    20.09000015  33.36000061  55.98999786
C    20.43999863  34.04000092  57.18999863
C    19.52000046  34.20999908  58.20000076
C    18.30000114  33.47999954  58.13999939
C    14.30999947  32.04000092  57.77999878
C    13.64999962  32.30999756  59.00000000
C    12.27000046  32.30999756  59.16999817
C    21.78999901  34.68000031  57.39999771
H    22.35087204  34.04813004  58.08866501
H    17.64000130  34.08000183  60.07999802
H    16.40999985  31.47000122  56.06999969
H    18.72999954  32.11999893  54.97000122
H    20.78000069  33.34999847  55.15999603
H    19.79999924  34.79000092  59.08000183
H    11.85999966  32.65000153  60.12000275
H    22.34000015  34.75000000  56.45999908
H    21.70000076  35.72999954  57.70000076
S    10.95000076  31.00000000  55.65999985
C     8.39999962  30.48000145  56.70999908
C     9.68000031  30.95000076  56.90000153
C    10.07999992  31.53000069  58.15000153
C     9.13000011  31.57999992  59.15999985
C     7.79999971  31.12999916  59.00000000
C     6.81999969  31.35999870  60.00999832
C     5.50000000  31.05999947  59.79000092
C     5.10999966  30.40999985  58.57999802
C     6.03999996  30.27000046  57.57999802
C     7.40000010  30.68000031  57.69000244
C    11.47999954  31.91999817  58.09000015
C    12.10999966  31.61999893  56.86000061
C    13.48000050  31.73999977  56.69000244
C     3.70000005  29.90999985  58.39000320
H     3.35909390  30.30062103  57.43120193
H     8.14999962  30.00000000  55.76000214
H     9.36999989  32.14999771  60.05000305
H     7.00000000  31.83000183  60.97000122
H     4.73000002  31.22999954  60.52999878
H     5.69999981  29.77999878  56.66999817
H    13.81999969  31.54999924  55.66999817
H     3.14000010  30.27000046  59.26000214
H     3.79999995  28.81999969  58.37999725
S    11.39000034  29.14999962  52.27000427
C     8.69999981  28.36999893  52.90999985
C    10.03999901  28.45000076  53.18999863
C    10.52999973  27.80999947  54.38000107
C     9.61999989  27.20999908  55.22999573
C     8.22000027  27.29999924  55.06999969
C     7.26000023  26.80999947  56.00000000
C     5.92999983  26.80000114  55.66999817
C     5.45000029  27.53000069  54.55999756
C     6.34999990  27.98000145  53.61000061
C     7.75000000  27.82999992  53.81999969
C    11.92999935  28.09999847  54.61999893
C    12.55000019  28.81000137  53.55999756
C    13.92000008  29.04999924  53.54999924
C     3.98000002  27.57999802  54.20000076
H     3.58780909  26.61734962  53.87198639
H     8.39999962  29.00000000  52.08000183
H    10.08999920  26.63000107  56.03000259
H     7.67000008  26.38999939  56.91999817
H     5.14999962  26.45000076  56.33999634
H     6.10000038  28.32999992  52.61000061
H    14.37999916  29.70999908  52.81999969
H     3.47000003  28.01000214  55.06999969
H     3.84000015  28.36000061  53.43999863
S    15.29000092  27.43999863  56.86999893
C    17.87999916  28.34000015  56.31999969
C    16.54000092  28.38000107  56.03000259
C    16.10999870  29.06999969  54.85000229
C    17.05999947  29.64999962  54.02000046
C    18.45000076  29.60000038  54.29000092
C    19.45999908  30.23999977  53.53000259
C    20.79999924  30.00000000  53.75999832
C    21.15999985  29.20000076  54.87999725
C    20.25000000  28.71000099  55.77000046
C    18.86999893  28.85000038  55.45000076
C    14.68999958  28.80000114  54.69999695
C    14.06999969  28.06999969  55.73999786
C    12.74000072  27.65000153  55.66999817
C    22.63000107  28.94000053  55.13999939
H    23.00728416  29.43118286  56.03693771
H    18.27999878  27.93000031  57.25000000
H    16.62999916  30.17000008  53.16999817
H    19.18000031  30.88000107  52.70000076
H    21.53000069  30.39999962  53.06999969
H    20.43000031  28.25000000  56.73999786
H    12.30999947  27.04000092  56.45999908
H    23.25000000  29.23999977  54.29000092
H    22.77000046  27.88999939  55.38999939
