96

S    15.19999981  33.25000000  60.06000137
C    17.71000099  33.86000061  59.00000000
C    16.47999954  33.25999832  58.83999634
C    16.04999924  32.66999817  57.61000061
C    16.98999977  32.52000046  56.60999680
C    18.30999947  32.97999954  56.79999924
C    19.31999969  32.79000092  55.80999756
C    20.55000114  33.40999985  55.90000153
C    20.86999893  34.20999908  57.02999878
C    19.95000076  34.33000183  58.04999924
C    18.68999863  33.67000198  58.00000000
C    14.63000107  32.34000015  57.63999939
C    14.01000023  32.65999985  58.88000107
C    12.64000034  32.45999908  58.95000076
C    22.29000092  34.66999817  57.29000092
H    22.69537926  34.24328613  58.20743561
H    18.07999992  34.34999847  59.88999939
H    16.77999878  31.98999786  55.68000031
H    19.06999969  32.13000107  54.98000336
H    21.25999832  33.29000092  55.10000229
H    20.06999969  34.86000061  58.99000168
H    12.13000107  32.85000229  59.84000397
H    22.86000061  34.40999985  56.38999939
H    22.34000015  35.77000046  57.32999802
S    11.38000011  31.45999908  55.31000137
C     8.71000004  31.07999992  56.23000336
C    10.01000023  31.47999954  56.43000031
C    10.47000027  31.70999908  57.77000046
C     9.55999947  31.64999962  58.81000137
C     8.21000004  31.25999832  58.63999939
C     7.18999958  31.28000069  59.64000320
C     5.88999987  30.95000076  59.34000015
C     5.50000000  30.45000076  58.06999969
C     6.48000002  30.43999863  57.09999847
C     7.77999973  31.00000000  57.29000092
C    11.90000057  31.94999886  57.88000107
C    12.53999901  31.68999863  56.63999939
C    13.93000031  31.80000114  56.56000137
C     4.13999987  29.84999847  57.78999710
H     3.58999038  30.37858009  57.01141357
H     8.23000050  30.88000107  55.27000046
H     9.85000038  31.80000114  59.84000397
H     7.44999981  31.54999924  60.65999985
H     5.18000031  31.00000000  60.15999603
H     6.24000025  30.05000114  56.11999893
H    14.39000034  31.40999985  55.65999985
H     3.51999998  29.79999924  58.68999863
H     4.25000000  28.84000015  57.37999725
S    15.42000008  33.47999954  53.68999863
C    18.06999969  33.90999985  52.84000015
C    16.77999878  33.54999924  52.55000305
C    16.43000031  33.20999908  51.19999695
C    17.46999931  33.04000092  50.30000305
C    18.79999924  33.44000244  50.61999893
C    19.85999870  33.18000031  49.69999695
C    21.14999962  33.54000092  49.99000168
C    21.47999954  34.20000076  51.20999908
C    20.48999977  34.31999969  52.16999817
C    19.14999962  33.94000244  51.91999817
C    15.01000023  32.93000031  51.11000061
C    14.32999992  33.09999847  52.34000397
C    12.94999981  33.00000000  52.50000000
C    22.86999893  34.75000000  51.43000031
H    23.28345108  34.17259598  52.25690079
H    18.30000114  34.29999924  53.82999802
H    17.22999954  32.66999817  49.31000137
H    19.63999939  32.61000061  48.80000305
H    22.00000000  33.34000015  49.34999847
H    20.72000122  34.66999817  53.16999817
H    12.46999931  33.13999939  53.46000290
H    23.54000092  34.68000031  50.56999969
H    22.75000000  35.79000092  51.76000214
S    11.84999943  31.83000183  48.82999802
C     9.21000004  31.38999939  49.66999817
C    10.51000023  31.70999908  49.98000336
C    10.82999992  32.27000046  51.25999832
C     9.77000046  32.50000000  52.12999725
C     8.46000004  32.04000092  51.90000153
C     7.48000050  32.18000031  52.93000031
C     6.37000036  31.40000153  52.71999741
C     6.05999994  30.71000099  51.52000046
C     6.94000006  30.71000099  50.47000122
C     8.18000031  31.40000153  50.63999939
C    12.23000050  32.63000107  51.36000061
C    12.90999985  32.42000198  50.13000107
C    14.27000046  32.59999847  49.95999908
C     4.69000006  30.06999969  51.39999771
H     4.12787247  30.61078072  50.63863754
H     8.93000031  31.01000023  48.68999863
H     9.96999931  33.09000015  53.02000046
H     7.77999973  32.77000046  53.80000305
H     5.66999960  31.40999985  53.54999924
H     6.76999998  30.31999969  49.47000122
H    14.86999989  32.27000046  49.12000275
H     4.13000011  30.05000114  52.32999802
H     4.80999994  29.02000046  51.11000061
