96

S    14.89999962  33.04999924  60.38999939
C    17.45000076  33.56999969  59.33000183
C    16.23999977  32.92000198  59.22999954
C    15.81999969  32.43999863  57.95000076
C    16.70999908  32.43999863  56.88999939
C    18.00000000  33.00000000  57.00000000
C    18.96000099  32.86000061  55.94999695
C    20.17999840  33.46999741  56.11999893
C    20.58000183  34.03000259  57.36000061
C    19.64999962  34.22000122  58.34999847
C    18.35000038  33.65000153  58.23999786
C    14.40000057  32.15999985  57.88999939
C    13.78000069  32.62000275  59.08000183
C    12.41000080  32.56000137  59.25000000
C    22.00000000  34.45999908  57.65999603
H    22.64900780  33.78959656  58.22342300
H    17.84000015  33.87000275  60.28999710
H    16.44000053  31.93000031  55.97000122
H    18.70000076  32.31999969  55.04000092
H    20.95000076  33.46999741  55.34999847
H    19.92000008  34.68000031  59.29999924
H    11.89000034  32.79000092  60.18000031
H    22.40999985  34.70999908  56.68000031
H    21.91999817  35.43000031  58.16999817
S    11.00999928  31.51000023  55.66999817
C     8.47000027  30.98999977  56.63000107
C     9.73999977  31.44000053  56.90999985
C    10.19000053  31.77999878  58.22999954
C     9.23999977  31.77999878  59.22999954
C     7.90999985  31.32999802  59.02000046
C     6.94999981  31.25000000  60.06999969
C     5.71000004  30.71000099  59.85000229
C     5.28999996  30.32999992  58.54000092
C     6.21999979  30.42000008  57.51999664
C     7.53999996  30.92000008  57.70000076
C    11.63000011  32.00999832  58.22999954
C    12.20999908  31.73999977  56.95999908
C    13.57999992  31.84999847  56.79000092
C     3.88999987  29.96999931  58.11000061
H     3.47684169  30.71795845  57.43327713
H     8.25000000  30.56999969  55.65000153
H     9.53999996  32.13000107  60.21999741
H     7.11000013  31.68999863  61.04999924
H     5.07999992  30.59999847  60.72999954
H     5.97000027  30.02000046  56.53999710
H    14.04999924  31.78999901  55.80999756
H     3.23000002  29.96000099  58.99000168
H     3.96000004  28.92000008  57.78999710
S    11.35000038  29.31999969  52.84999847
C     8.85999966  28.59000015  53.76999664
C    10.21000004  28.62999916  54.02000046
C    10.82999992  27.93999863  55.11000061
C    10.00000000  27.29999924  56.00999832
C     8.59000015  27.29000092  55.86000061
C     7.67000008  26.55999947  56.66999817
C     6.32000017  26.50000000  56.44000244
C     5.75999975  27.25000000  55.37000275
C     6.61999989  27.93000031  54.54000092
C     8.01999950  28.03999901  54.77000427
C    12.25999928  28.21000099  55.10000229
C    12.69000053  28.82999802  53.89999771
C    13.97999954  29.31999969  53.74000168
C     4.28000021  27.30999947  55.06000137
H     3.97993064  27.20997620  54.01690292
H     8.46000004  29.14999962  52.93000031
H    10.39999962  27.03000069  56.97999954
H     8.15999985  25.97999954  57.44999695
H     5.73000002  25.78000069  56.98999786
H     6.28999996  28.46999931  53.66000366
H    14.32999992  29.82999992  52.84999847
H     3.88000011  26.52000046  55.70999908
H     4.03999996  28.26999855  55.52999878
S    15.76000023  28.00000000  57.09000015
C    18.30000114  28.62999916  56.18999863
C    16.94000053  28.68999863  55.96000290
C    16.36999893  29.25000000  54.77000427
C    17.20000076  29.79999924  53.81999969
C    18.60000038  29.75000000  54.03999710
C    19.40999985  30.29000092  53.00000000
C    20.73999786  30.48000145  53.27000046
C    21.28999901  30.02000046  54.50000000
C    20.55999947  29.40000153  55.48999786
C    19.14999962  29.33000183  55.30000305
C    14.93000031  29.02000046  54.72999954
C    14.48999977  28.35000038  55.90000153
C    13.21000004  27.84000015  56.06999969
C    22.67000008  30.53999901  54.84000397
H    23.08864212  30.01492310  55.69857025
H    18.70000076  28.11000061  57.05999756
H    16.79999924  30.17999840  52.88000107
H    19.05999947  30.69000053  52.04999924
H    21.32999802  31.04999924  52.56000137
H    21.07000160  28.95999908  56.33999634
H    12.88000011  27.15999985  56.84999847
H    22.53000069  31.56999969  55.20000076
H    23.31000137  30.63999939  53.95999908
