96

S    14.52000046  32.78000259  60.30000305
C    17.12000084  33.00000000  59.43999863
C    15.84000015  32.61000061  59.13000107
C    15.46000004  32.21999741  57.80000305
C    16.44000053  32.15999985  56.83000183
C    17.78000069  32.47000122  57.15999985
C    18.78000069  32.45999908  56.13999939
C    20.03999901  32.97000122  56.32999802
C    20.45000076  33.34000015  57.63999939
C    19.50000000  33.32999802  58.61999893
C    18.15000153  32.86999893  58.48999786
C    14.01000023  32.11999893  57.75000000
C    13.38000107  32.47000122  58.97999573
C    12.00000000  32.34999847  59.10999680
C    21.77000046  34.04999924  57.85999680
H    22.36200142  33.70763779  58.70877457
H    17.32999992  33.47999954  60.40000153
H    16.14999962  31.90999985  55.80999756
H    18.36000061  32.18000031  55.17000198
H    20.65999985  33.29999924  55.50000000
H    19.67000008  33.77999878  59.59999847
H    11.51000023  32.47999954  60.06999969
H    22.36999893  34.09000015  56.95000076
H    21.48999977  35.09999847  58.04999924
S    10.70000076  31.19999886  55.52000046
C     8.10000038  30.72000122  56.37000275
C     9.34000015  31.24000168  56.65999985
C     9.76000023  31.80999947  57.90000153
C     8.78999996  31.90999985  58.88000107
C     7.50999975  31.34000015  58.70999908
C     6.51999998  31.40999985  59.73999786
C     5.31000042  30.79000092  59.56999969
C     5.01999950  30.09000015  58.36999893
C     5.95000029  30.02000046  57.36000061
C     7.18999958  30.72000122  57.45999908
C    11.18999958  32.06000137  58.00000000
C    11.82999992  31.77999878  56.77000046
C    13.21000004  31.84999847  56.63000107
C     3.65000010  29.60000038  57.95999908
H     3.26493979  30.20611382  57.13996506
H     8.05000019  30.09000015  55.48999786
H     9.10000038  32.20000076  59.87999725
H     6.84999990  31.86000061  60.66999817
H     4.50000000  30.93000031  60.28999710
H     5.65000010  29.76000023  56.35000229
H    13.59000015  31.50000000  55.68000031
H     2.96999979  29.82000160  58.79000092
H     3.70000005  28.50000000  57.88000107
S    11.42000008  29.01000023  52.68000031
C     8.89000034  28.01000214  53.41999817
C    10.24000072  28.12999916  53.66000366
C    10.85999966  27.63000107  54.85000229
C    10.03999901  27.07999992  55.81999969
C     8.67000008  26.84999847  55.56999969
C     7.76999998  26.25999832  56.50000000
C     6.39999962  26.30000114  56.37000275
C     5.82000017  26.86000061  55.20000076
C     6.65000010  27.53000069  54.33000183
C     8.05999947  27.36999893  54.38000107
C    12.23000050  28.09999847  54.99000168
C    12.68000031  28.92000008  53.93000031
C    13.94999981  29.47999954  53.81999969
C     4.30999994  26.90999985  55.06000137
H     3.93326330  27.02373123  54.04351807
H     8.45000076  28.57000160  52.60000229
H    10.39999962  26.90999985  56.84000015
H     8.27999973  26.02999878  57.43999863
H     5.65000010  26.12999916  57.12999725
H     6.15000010  28.18000031  53.61000061
H    14.18000031  29.84999847  52.81999969
H     3.93000007  25.96999931  55.45999908
H     3.91000009  27.73999977  55.65000153
S    15.82999992  27.98999977  56.95000076
C    18.34000015  28.61000061  55.90999985
C    16.97000122  28.69999886  55.79000092
C    16.34000015  29.23999977  54.62999725
C    17.11000061  29.86000061  53.67000198
C    18.52000046  29.86999893  53.81000137
C    19.29999924  30.59999847  52.88000107
C    20.65999985  30.72999954  53.08000183
C    21.25000000  30.22000122  54.27000046
C    20.52999878  29.50000000  55.20000076
C    19.15999985  29.25000000  54.94999695
C    14.89999962  29.05999947  54.75999832
C    14.45000076  28.35000038  55.90000153
C    13.14000034  27.89999962  56.03000259
C    22.62000084  30.69999886  54.66999817
H    22.94801521  30.30781174  55.63264847
H    18.78999901  28.26999855  56.84000015
H    16.75000000  30.55000114  52.90000153
H    18.92000008  31.12999916  52.01000214
H    21.17000198  31.42999840  52.43000031
H    20.98999977  29.37000084  56.18000031
H    12.89999962  27.34999847  56.93999863
H    22.72000122  31.78999901  54.68000031
H    23.29000092  30.43000031  53.83999634
