96

S    15.47000027  33.22999954  60.48999786
C    18.04999924  33.59000015  59.56999969
C    16.77000046  33.15999985  59.29000092
C    16.35000038  32.72000122  57.98999786
C    17.30999947  32.57999802  57.01000214
C    18.61999893  33.06000137  57.21000290
C    19.61000061  33.08000183  56.18000031
C    20.92000008  33.43000031  56.38000107
C    21.27000046  33.94000244  57.67000198
C    20.34000015  33.98999786  58.68000031
C    19.00000000  33.54999924  58.50999832
C    14.93999958  32.36000061  58.02999878
C    14.29999924  32.73999786  59.23999786
C    12.92000008  32.66999817  59.38999939
C    22.63999939  34.52000046  57.95999908
H    23.16019630  33.86440659  58.65834808
H    18.32999992  34.05999756  60.51000214
H    17.02000046  32.13999939  56.05999756
H    19.20999908  32.66999817  55.26000214
H    21.64999962  33.34000015  55.59000015
H    20.65000153  34.38000107  59.64000320
H    12.46000099  32.88000107  60.34999847
H    23.18000031  34.48999786  57.00000000
H    22.50999832  35.54000092  58.33000183
S    11.69999981  31.47000122  55.79000092
C     9.02999973  31.15999985  56.65999985
C    10.31000042  31.60000038  56.88999939
C    10.72000027  32.07999802  58.18000031
C     9.77000046  32.20000076  59.18000031
C     8.43000031  31.80000114  58.94000244
C     7.42999983  31.97000122  59.93999863
C     6.17999983  31.45999908  59.68000031
C     5.78999996  30.90999985  58.43000031
C     6.70000029  30.89999962  57.39999771
C     8.02999973  31.32999802  57.63999939
C    12.13999939  32.38999939  58.27000046
C    12.79000092  32.09000015  57.04999924
C    14.17000008  32.02000046  56.90999985
C     4.41000032  30.31999969  58.25000000
H     3.93236375  30.79763603  57.39453125
H     8.85999966  30.56999969  55.76000214
H    10.05000019  32.57999802  60.15999603
H     7.59999990  32.43999863  60.90000153
H     5.44000053  31.37000084  60.47999954
H     6.37000036  30.38999939  56.50000000
H    14.70000076  31.63999939  56.04000092
H     3.84999990  30.55999947  59.16999817
H     4.50000000  29.26000214  57.97999954
S    15.43000031  33.65999985  54.15000153
C    18.09000015  33.87000275  53.29999924
C    16.79999924  33.46999741  53.02999878
C    16.43000031  32.95999908  51.75000000
C    17.38000107  32.70000076  50.79000092
C    18.70000076  33.15000153  51.03000259
C    19.71999931  33.06999969  50.04000092
C    20.96999931  33.61999893  50.20999908
C    21.32999802  34.27999878  51.42000198
C    20.32999992  34.40000153  52.36000061
C    19.05999947  33.75999832  52.28000259
C    14.98999977  32.76000214  51.65999985
C    14.32999992  33.13999939  52.84999847
C    12.94999981  33.15000153  52.97999954
C    22.79999924  34.57999802  51.60999680
H    23.31378555  33.95203781  52.33786392
H    18.19000053  34.45999908  54.20999908
H    17.02999878  32.38999939  49.80999756
H    19.45000076  32.55000305  49.13000107
H    21.61000061  33.45000076  49.34999847
H    20.52000046  34.92000198  53.29999924
H    12.34000015  33.38999939  53.85000229
H    23.28000069  34.52999878  50.61999893
H    22.86999893  35.61000061  51.97000122
S    11.72999954  31.68000031  49.45999908
C     9.04999924  31.47000122  50.26000214
C    10.32999992  31.91999817  50.52000046
C    10.73999977  32.49000168  51.77000046
C     9.77000046  32.72000122  52.74000168
C     8.45000076  32.29000092  52.48000336
C     7.53000021  32.29999924  53.56999969
C     6.25000000  31.80999947  53.44999695
C     5.91000032  31.07000160  52.28000259
C     6.80000019  30.95000076  51.24000168
C     8.06999969  31.59000015  51.27999878
C    12.17000008  32.68000031  51.91999817
C    12.82999992  32.27000046  50.72000122
C    14.21000004  32.27999878  50.59000015
C     4.61000013  30.29999924  52.18999863
H     4.04811192  30.62717628  51.31516266
H     8.84000015  30.82999992  49.41999817
H    10.01000023  32.97000122  53.76999664
H     7.88999987  32.66999817  54.52999878
H     5.55000019  31.86000061  54.27999878
H     6.60000038  30.36000061  50.35999680
H    14.68000031  31.80999947  49.73999786
H     4.05000019  30.53999901  53.09999847
H     4.80999994  29.21999931  52.16999817
