96

S    15.21000004  32.75000000  60.41999817
C    17.87999916  33.27999878  59.62999725
C    16.61000061  32.84000015  59.34000015
C    16.27000046  32.55000305  57.97999954
C    17.22999954  32.47999954  56.98999786
C    18.51000023  33.02999878  57.25000000
C    19.51000023  33.25000000  56.25000000
C    20.71000099  33.84999847  56.52000046
C    21.04999924  34.18000031  57.85999680
C    20.12000084  33.97000122  58.85000229
C    18.82999992  33.44000244  58.59000397
C    14.81999969  32.44999695  57.81000137
C    14.11999893  32.65999985  59.02000046
C    12.72999954  32.65000153  59.06999969
C    22.46999931  34.52999878  58.22000122
H    22.92397308  33.77810287  58.86549377
H    18.05999947  33.82999802  60.54999924
H    17.00000000  32.11999893  56.00000000
H    19.14999962  32.93999863  55.27000046
H    21.47000122  33.94000244  55.73999786
H    20.28000069  34.31000137  59.86999893
H    12.11999989  32.73999786  59.95999908
H    23.02000046  34.50999832  57.25999832
H    22.53000069  35.52999878  58.66000366
S    11.67000008  31.56999969  55.40000153
C     8.98999977  31.09999847  56.24000168
C    10.27999973  31.47999954  56.50000000
C    10.62000084  31.84999847  57.84000015
C     9.61999989  31.83000183  58.79000092
C     8.31999969  31.31000137  58.57999802
C     7.37999964  31.17000198  59.62999725
C     6.11999989  30.62999916  59.45000076
C     5.77000046  30.25000000  58.13000107
C     6.65000010  30.48000145  57.09000015
C     7.96999979  30.98999977  57.22000122
C    12.02000046  32.26000214  57.93000031
C    12.74000072  31.91999817  56.76000214
C    14.13000011  31.94999886  56.70000076
C     4.38000011  29.76000023  57.80000305
H     3.77300406  30.52410126  57.31440353
H     8.88000011  30.76999855  55.20999908
H     9.88000011  32.18000031  59.79000092
H     7.64999962  31.68999863  60.54999924
H     5.23000002  30.68000031  60.06999969
H     6.38000011  30.15000153  56.09000397
H    14.65999985  31.50000000  55.86000061
H     3.91999984  29.59000015  58.77999878
H     4.44000006  28.90999985  57.11000061
S    15.29999924  33.52000046  54.09999847
C    17.89999962  34.15999985  53.16999817
C    16.68000031  33.54999924  52.98999786
C    16.32999992  33.04000092  51.70000076
C    17.21999931  33.18999863  50.65999985
C    18.48999977  33.77999878  50.84999847
C    19.51000023  33.62999725  49.86999893
C    20.81999969  33.81999969  50.20999908
C    21.18999863  34.48999786  51.40999603
C    20.20999908  34.71999741  52.35000229
C    18.88000107  34.26000214  52.15000153
C    14.88999939  32.86999893  51.56000137
C    14.19000053  33.09000015  52.77999878
C    12.81000042  33.16999817  52.84999847
C    22.63000107  34.77999878  51.76000214
H    22.99975777  34.16136932  52.57772827
H    18.12000084  34.66999817  54.10999680
H    16.95000076  32.80999756  49.68000031
H    19.19999886  32.99000168  49.03999710
H    21.51000023  33.25000000  49.59000015
H    20.52999878  35.00999832  53.34999847
H    12.15999985  33.61999893  53.60000229
H    23.31000137  34.80999756  50.90000153
H    22.72999954  35.79999924  52.15000153
S    11.75000000  31.77000046  49.25000000
C     9.11999989  31.32999802  50.07999802
C    10.36000061  31.87999916  50.34000015
C    10.69000053  32.44999695  51.59999847
C     9.71000004  32.40999985  52.57999802
C     8.40999985  31.90000153  52.36000061
C     7.42999983  31.84999847  53.40000153
C     6.19000006  31.34000015  53.09000015
C     5.92999983  30.73999786  51.83000183
C     6.86999989  30.68000031  50.83000183
C     8.13000011  31.30000114  51.09000397
C    12.10000038  32.80999756  51.69000244
C    12.79000092  32.47000122  50.50000000
C    14.18000031  32.50000000  50.40999985
C     4.59000015  30.10000038  51.58000183
H     4.02912712  30.73186874  50.89133453
H     9.02000046  30.84000015  49.10999680
H     9.96999931  32.66999817  53.60000229
H     7.68000031  32.36000061  54.33000183
H     5.42000008  31.40999985  53.85000229
H     6.72999954  30.20999908  49.85000229
H    14.70999908  32.25000000  49.50000000
H     4.05000019  29.99000168  52.54000092
H     4.76000023  29.11999893  51.11999893
