96

S    15.85000038  33.04000092  60.19000244
C    18.51000023  33.39999771  59.34000015
C    17.25000000  32.92000198  59.10999680
C    16.87999916  32.27000046  57.88999939
C    17.86999893  32.11999893  56.93000031
C    19.22999954  32.43999863  57.12999725
C    20.25000000  31.98999786  56.24000168
C    21.56999969  32.33000183  56.46999741
C    21.80000114  33.22999954  57.55000305
C    20.85000038  33.58000183  58.47999954
C    19.50000000  33.13000107  58.36000061
C    15.43000031  32.15999985  57.77000046
C    14.70999908  32.49000168  58.95000076
C    13.34000015  32.70000076  58.95999908
C    23.21000099  33.67000198  57.87000275
H    23.62165833  33.45707321  58.85656357
H    18.63000107  34.03000259  60.22999573
H    17.65999985  31.44000053  56.11000061
H    19.90999985  31.61000061  55.28999710
H    22.36000061  32.21999741  55.73999786
H    21.21000099  34.11000061  59.36000061
H    12.82999992  33.09000015  59.84000397
H    23.80000114  33.25000000  57.04999924
H    23.35000038  34.73999786  57.70999908
S    12.15999985  31.07999992  55.52000046
C     9.51000023  30.79000092  56.36000061
C    10.77000046  31.27000046  56.59999847
C    11.17000008  31.94999886  57.80000305
C    10.17000008  32.29000092  58.69999695
C     8.82999992  31.88999939  58.50000000
C     7.76999998  32.13999939  59.40999985
C     6.51999998  31.59000015  59.22999954
C     6.28000021  30.86000061  58.02999878
C     7.21000004  30.65000153  57.04999924
C     8.53999996  31.04000092  57.36999893
C    12.60000038  32.19000244  57.88999939
C    13.27999973  31.73999977  56.72999954
C    14.67000008  31.77999878  56.65999985
C     4.88000011  30.36000061  57.70000076
H     4.38118076  30.86594772  56.87338257
H     9.22000027  30.22999954  55.47000122
H    10.44999981  32.78000259  59.62999725
H     7.96999979  32.59000015  60.38000107
H     5.69999981  31.73999977  59.92000198
H     7.03999996  30.06000137  56.14999771
H    15.21000004  31.38000107  55.79999924
H     4.28000021  30.36999893  58.61999893
H     4.99000025  29.28999901  57.49000168
S    16.31999969  33.02000046  53.99000168
C    18.92000008  33.34000015  53.15000153
C    17.68000031  32.79999924  52.88000107
C    17.28999901  32.29000092  51.59999847
C    18.22000122  32.34999847  50.56999969
C    19.55000114  32.75000000  50.84000015
C    20.58000183  32.55000305  49.87999725
C    21.87000084  32.90999985  50.21999741
C    22.29999924  33.36000061  51.50000000
C    21.28000069  33.50000000  52.42000198
C    19.90999985  33.25000000  52.14000320
C    15.84000015  32.15999985  51.47999573
C    15.21000004  32.55000305  52.69000244
C    13.85000038  32.86000061  52.76000214
C    23.71999931  33.68999863  51.86999893
H    24.11242676  33.02644348  52.64058304
H    19.17000008  33.70999908  54.13999939
H    18.00000000  31.76000214  49.68000031
H    20.23999977  32.02999878  48.99000168
H    22.56999969  32.81999969  49.40000153
H    21.51000023  33.69999695  53.46000290
H    13.48000050  33.06000137  53.75999832
H    24.26000214  33.67000198  50.90999985
H    23.75000000  34.71999741  52.25999832
S    12.53000069  31.18000031  49.36999893
C     9.96000004  30.81999969  50.33000183
C    11.18999958  31.40999985  50.50000000
C    11.64999962  32.11000061  51.66999817
C    10.65000057  32.30999756  52.58999634
C     9.31999969  31.84000015  52.45999908
C     8.27000046  32.14999771  53.37999725
C     6.94000006  31.87999916  53.16999817
C     6.58999968  31.05999947  52.05999756
C     7.59000015  30.69000053  51.19999695
C     8.93999958  31.14000130  51.25999832
C    13.05999947  32.45999908  51.68000031
C    13.67000008  31.87999916  50.52999878
C    15.05000019  31.83000183  50.37000275
C     5.23000002  30.40999985  51.93999863
H     4.58656549  30.96049500  51.25366974
H     9.85999966  30.13000107  49.48999786
H    10.80999947  33.00000000  53.41999817
H     8.52000046  32.86999893  54.15999985
H     6.25000000  32.15999985  53.95999908
H     7.53000021  29.93000031  50.41999817
H    15.59000015  31.53000069  49.48999786
H     4.77999973  30.32999992  52.94000244
H     5.38000011  29.37999916  51.56999969
