96

S    15.47000027  32.93000031  60.34999847
C    18.12999916  33.27999878  59.51000214
C    16.84000015  32.90999985  59.20999908
C    16.44000053  32.47000122  57.90999985
C    17.38999939  32.43999863  56.90999985
C    18.71000099  32.88000107  57.15000153
C    19.76000023  32.79000092  56.18000031
C    21.07000160  33.06000137  56.51000214
C    21.40999985  33.69999695  57.72999573
C    20.38999939  33.84000015  58.64999771
C    19.09000015  33.31000137  58.47000122
C    15.00000000  32.27000046  57.81000137
C    14.34000015  32.52000046  59.03999710
C    12.96000004  32.52999878  59.18000031
C    22.81999969  34.11000061  58.06000137
H    23.31932259  33.44661713  58.76618576
H    18.45000076  33.63999939  60.48999786
H    17.15999985  32.06000137  55.90999985
H    19.44000053  32.44999695  55.20000076
H    21.87999916  32.80999756  55.83000183
H    20.65000153  34.24000168  59.62999725
H    12.53000069  32.65999985  60.17000198
H    23.39999962  34.34999847  57.15000153
H    22.72000122  35.09000015  58.54000092
S    11.69999981  31.40000153  55.59000015
C     9.02999973  31.09000015  56.38999939
C    10.31000042  31.47000122  56.70000076
C    10.72999954  32.02999878  57.95000076
C     9.77999973  32.14999771  58.95000076
C     8.43999958  31.87000084  58.61000061
C     7.48000050  32.04000092  59.65000153
C     6.17999983  31.60000038  59.47000122
C     5.78999996  30.89999962  58.29999924
C     6.67000008  30.84000015  57.25000000
C     8.01000023  31.31999969  57.35000229
C    12.17000008  32.20000076  58.08000183
C    12.84000015  31.87000084  56.86999893
C    14.22000027  31.94000053  56.69000244
C     4.59999990  29.96999931  58.20999908
H     3.85369539  30.41067505  57.54898834
H     8.90999985  30.45000076  55.52000046
H    10.06999969  32.45999908  59.94999695
H     7.82999992  32.36999893  60.63000107
H     5.42000008  31.71999931  60.24000168
H     6.44000006  30.17000008  56.42000198
H    14.59000015  31.65999985  55.72000122
H     4.28000021  29.79000092  59.23999786
H     5.00999975  28.98999977  57.94000244
S    12.13999939  29.54000092  52.55000305
C     9.63000011  28.57999992  53.26000214
C    10.98000050  28.61000061  53.50999832
C    11.59000015  28.02999878  54.66999817
C    10.73999977  27.44999886  55.59000015
C     9.34000015  27.40999985  55.40000153
C     8.47999954  26.88999939  56.42000198
C     7.11999989  26.77000046  56.25000000
C     6.53999996  27.39999962  55.11000061
C     7.35000038  28.06999969  54.22000122
C     8.76999950  27.95999908  54.20000076
C    13.02000046  28.29000092  54.78000259
C    13.40000057  29.18999863  53.75000000
C    14.68000031  29.72999954  53.75000000
C     5.05000019  27.52000046  54.92000198
H     4.62287712  27.07151985  54.02304459
H     9.09000015  29.25000000  52.60000229
H    11.07999992  26.96000099  56.51000214
H     9.03999996  26.50000000  57.27000427
H     6.37000036  26.51000023  56.97999954
H     6.86999989  28.75999832  53.53000259
H    14.96000099  30.43999863  52.97000122
H     4.50000000  27.20999908  55.81999969
H     4.86000013  28.59000015  54.79999924
S    16.46000099  28.05999947  56.90999985
C    19.03000069  28.90000153  56.11000061
C    17.67000008  28.94000053  55.96000290
C    17.02999878  29.56000137  54.84000397
C    17.79000092  30.12000084  53.82999802
C    19.19999886  30.10999870  53.93000031
C    19.98999977  30.73999786  52.93000031
C    21.31000137  31.02999878  53.18999863
C    21.96000099  30.43000031  54.29000092
C    21.21000099  29.76000023  55.22999573
C    19.80999947  29.54000092  55.10000229
C    15.59000015  29.37000084  54.75000000
C    15.15999985  28.47999954  55.77999878
C    13.90999985  27.86999893  55.77000046
C    23.46999931  30.35000038  54.41999817
H    23.73915863  30.30750275  55.47538757
H    19.51000023  28.45999908  56.97999954
H    17.28999901  30.52000046  52.95000076
H    19.40999985  31.17000198  52.11000061
H    21.90000153  31.63000107  52.50999832
H    21.73999977  29.18999863  55.97999954
H    13.60000038  27.22999954  56.59000015
H    23.90000153  31.24000168  53.96999741
H    23.90999985  29.48999786  53.89999771
