96

S    15.82999992  32.83000183  60.44000244
C    18.54999924  33.06999969  59.64000320
C    17.25000000  32.68000031  59.38999939
C    16.80999947  32.18000031  58.11999893
C    17.79000092  32.18000031  57.14000320
C    19.04999924  32.79999924  57.25999832
C    20.03000069  32.73999786  56.24000168
C    21.31999969  33.13000107  56.55000305
C    21.63000107  33.84999847  57.72999573
C    20.69999886  33.90000153  58.75000000
C    19.43000031  33.29999924  58.55999756
C    15.38000011  31.94000053  58.01000214
C    14.67000008  32.36000061  59.16999817
C    13.28999996  32.47999954  59.22999954
C    23.05000114  34.29999924  58.01000214
H    23.57037926  33.62992477  58.69433212
H    18.64999962  33.43000031  60.65999985
H    17.56999969  31.68000031  56.19999695
H    19.71999931  32.11999893  55.40000153
H    22.14999962  32.81999969  55.91999817
H    21.11000061  34.18999863  59.72000122
H    12.89000034  32.81999969  60.18000031
H    23.52000046  34.22000122  57.02000046
H    23.18000031  35.30999756  58.40000153
S    12.05999947  30.89999962  55.77999878
C     9.46000004  30.55999947  56.70000076
C    10.71000004  31.11000061  56.90999985
C    11.09000015  31.81999969  58.09000015
C    10.10000038  32.06999969  59.02000046
C     8.78000069  31.57999992  58.82999802
C     7.73999977  31.76000214  59.78000259
C     6.50000000  31.19999886  59.62999725
C     6.19000006  30.52999878  58.40999985
C     7.11999989  30.38000107  57.41000366
C     8.43999958  30.85000038  57.63999939
C    12.53000069  32.04000092  58.13999939
C    13.20000076  31.53000069  57.00000000
C    14.57999992  31.47000122  56.95000076
C     4.84000015  29.86999893  58.22999954
H     4.21071434  30.49213409  57.59356689
H     9.19999981  29.90999985  55.86999893
H    10.44999981  32.52000046  59.93999863
H     8.02999973  32.30999756  60.68000031
H     5.73999977  31.31999969  60.40000153
H     6.90000010  29.77999878  56.52999878
H    15.05000019  31.14000130  56.03000259
H     4.44999981  29.70000076  59.23999786
H     4.92000008  28.87000084  57.78999710
S    15.93000031  33.11000061  54.50000000
C    18.44000053  33.81999969  53.57999802
C    17.22999954  33.23999786  53.29999924
C    16.84999847  32.78000259  51.98999786
C    17.79000092  32.88999939  50.98999786
C    19.05999947  33.47999954  51.19999695
C    20.10999870  33.45999908  50.22999573
C    21.37000084  33.90999985  50.56000137
C    21.67000008  34.50999832  51.81000137
C    20.69000053  34.41999817  52.77999878
C    19.37999916  33.95000076  52.51999664
C    15.43000031  32.45999908  51.98999786
C    14.77000046  32.69000244  53.22000122
C    13.38000107  32.69000244  53.27000046
C    23.02000046  35.09000015  52.12999725
H    23.54704285  34.55583572  52.92056274
H    18.73999977  34.36999893  54.47000122
H    17.57999992  32.27999878  50.11000061
H    19.93000031  32.85000229  49.34999847
H    22.23999977  33.77000046  49.93000031
H    20.81999969  34.72999954  53.81000137
H    12.74000072  32.90999985  54.12000275
H    23.62999916  35.27000046  51.24000168
H    22.82999992  36.12999725  52.44999695
S    12.05999947  31.75000000  49.64000320
C     9.40999985  31.45999908  50.59999847
C    10.72999954  31.80999947  50.79999924
C    11.14999962  32.29000092  52.08000183
C    10.24000072  32.42000198  53.11999893
C     8.92000008  31.94000053  52.95000076
C     7.96000004  32.09999847  54.00000000
C     6.67000008  31.68000031  53.81999969
C     6.28000021  31.17000198  52.55000305
C     7.13000011  31.07000160  51.47999573
C     8.47999954  31.47999954  51.66999817
C    12.60000038  32.40999985  52.14000320
C    13.23999977  32.15999985  50.90000153
C    14.63000107  32.19000244  50.87999725
C     4.90000010  30.59000015  52.30999756
H     4.38591480  31.02554321  51.45318985
H     9.11000061  31.02999878  49.65000153
H    10.59999943  32.69000244  54.10999680
H     8.28999996  32.34000015  55.00999832
H     5.91000032  31.86000061  54.58000183
H     6.96000004  30.59000015  50.52000046
H    15.08999920  31.97999954  49.91000366
H     4.23999977  30.46999931  53.16999817
H     5.09000015  29.56000137  51.97000122
