96

S    14.63000107  32.97999954  60.52999878
C    17.13999939  33.32999802  59.45999908
C    15.90999985  32.75000000  59.31000137
C    15.44000053  32.16999817  58.09000015
C    16.44000053  31.90000153  57.16999817
C    17.78000069  32.33000183  57.29999924
C    18.81999969  31.96000099  56.39999771
C    20.12000084  32.36000061  56.62000275
C    20.45000076  33.08000183  57.80000305
C    19.51000023  33.32999802  58.76999664
C    18.13999939  33.04999924  58.48999786
C    13.99000072  32.07999802  58.09999847
C    13.42000008  32.47999954  59.34000015
C    12.05000019  32.59999847  59.58000183
C    21.81999969  33.68999863  57.93000031
H    22.35304070  33.19249725  58.74022293
H    17.53000069  33.61000061  60.44000244
H    16.25000000  31.11000061  56.45000076
H    18.56999969  31.30000114  55.56999969
H    20.86000061  32.31999969  55.83000183
H    19.63999939  33.87000275  59.71000290
H    11.75000000  33.13999939  60.47000122
H    22.39000130  33.51000214  57.01000214
H    21.76000214  34.77999878  58.06000137
S    10.60999966  31.50000000  56.00999832
C     8.03999996  31.18999863  56.97000122
C     9.30000019  31.71999931  57.18999863
C     9.72999954  32.19000244  58.47000122
C     8.73000050  32.42000198  59.40000153
C     7.40999985  31.94000053  59.25000000
C     6.44000006  32.02999878  60.28999710
C     5.19000006  31.48999977  60.07999802
C     4.88000011  30.79999924  58.88000107
C     5.80999947  30.69000053  57.88000107
C     7.09000015  31.28999901  58.01000214
C    11.18000031  32.22999954  58.54999924
C    11.76000023  31.83000183  57.31999969
C    13.12000084  31.61999893  57.09999847
C     3.47000003  30.26000023  58.76999664
H     2.90657473  30.90900993  58.09959412
H     7.78999996  30.81999969  55.97000122
H     9.03999996  32.78000259  60.38000107
H     6.77999973  32.47999954  61.22000122
H     4.40000010  31.77000046  60.77999878
H     5.51999998  30.19000053  56.95999908
H    13.50000000  31.19999886  56.18000031
H     2.89000010  30.15999985  59.68999863
H     3.50000000  29.23000145  58.37999725
S    14.65000057  32.76000214  54.20999908
C    17.34000015  33.13999939  53.50000000
C    16.04999924  32.85000229  53.11999893
C    15.67999935  32.47000122  51.79000092
C    16.69999886  32.43999863  50.84999847
C    18.04000092  32.68000031  51.20999908
C    19.06999969  32.33000183  50.27999878
C    20.38000107  32.65999985  50.52000046
C    20.71000099  33.11999893  51.81999969
C    19.77000046  33.29999924  52.81000137
C    18.38999939  33.08000183  52.55000305
C    14.23999977  32.36999893  51.59000015
C    13.56999969  32.47999954  52.83000183
C    12.18000031  32.47999954  52.93000031
C    22.13999939  33.58000183  51.95999908
H    22.63846970  33.23107147  52.86436462
H    17.52000046  33.56999969  54.47999954
H    16.46000099  31.94000053  49.92000198
H    18.78000069  32.00000000  49.29000092
H    21.02999878  32.76000214  49.65000153
H    20.17999840  33.68999863  53.74000168
H    11.76000023  32.52000046  53.93000031
H    22.67000008  33.13999939  51.10000229
H    22.21999931  34.68000031  51.86999893
S    11.00999928  31.60000038  49.29000092
C     8.30000019  31.28000069  50.06000137
C     9.61000061  31.60000038  50.37000275
C     9.96999931  32.09999847  51.65999985
C     9.04999924  32.31999969  52.67000198
C     7.69000006  32.00999832  52.39999771
C     6.60000038  32.15999985  53.29000092
C     5.28999996  31.87000084  53.00000000
C     4.98000002  31.30000114  51.72999954
C     6.00000000  31.21000099  50.79999924
C     7.35000038  31.55999947  51.06999969
C    11.39999962  32.30999756  51.77999878
C    12.13000107  32.06000137  50.59000015
C    13.50999928  32.00999832  50.45000076
C     3.65000010  30.72000122  51.31999969
H     3.17362452  31.40967751  50.62321091
H     7.97999954  30.81000137  49.13999939
H     9.35999966  32.84000015  53.56999969
H     6.80000019  32.43000031  54.33000183
H     4.61000013  31.90000153  53.83999634
H     5.71000004  30.89999962  49.79999924
H    13.99000072  31.71999931  49.51000214
H     2.92000008  30.55000114  52.11000061
H     3.84000015  29.79000092  50.77000046
