96

S    15.34000015  33.15000153  60.37000275
C    17.88999939  33.88000107  59.45999908
C    16.68000031  33.27000046  59.20999908
C    16.36999893  32.62000275  57.97999954
C    17.38000107  32.47999954  57.04999924
C    18.63999939  33.09999847  57.25000000
C    19.70000076  32.86999893  56.32999802
C    20.95000076  33.36999893  56.58000183
C    21.19999886  34.13999939  57.75000000
C    20.20000076  34.36999893  58.66000366
C    18.89000130  33.86000061  58.44999695
C    14.94999981  32.29999924  57.87000275
C    14.26000023  32.61000061  59.06999969
C    12.88000011  32.52999878  59.22000122
C    22.56000137  34.76000214  57.97000122
H    23.13096046  34.03916550  58.55523300
H    18.19000053  34.31000137  60.40999985
H    17.23999977  31.86000061  56.17000198
H    19.59000015  32.38999939  55.35999680
H    21.77000046  33.13999939  55.90999985
H    20.36999893  34.90999985  59.59000015
H    12.38000011  32.84000015  60.13999939
H    23.05999947  34.97000122  57.01000214
H    22.49000168  35.73999786  58.47000122
S    11.68000031  31.19999886  55.68000031
C     9.06999969  30.69999886  56.70000076
C    10.31000042  31.30000114  56.79999924
C    10.69000053  31.83000183  58.08000183
C     9.76000023  31.90999985  59.09000015
C     8.46000004  31.38000107  58.92000198
C     7.42000008  31.61999893  59.86000061
C     6.11999989  31.21999931  59.68999863
C     5.84999990  30.36999893  58.57999802
C     6.75000000  30.20999908  57.55000305
C     8.05000019  30.78000069  57.68000031
C    12.11999989  32.13000107  58.11999893
C    12.79999924  31.78999901  56.91999817
C    14.19000053  31.84000015  56.79000092
C     4.53999996  29.63000107  58.47999954
H     3.78734016  30.19804573  57.93325424
H     9.09000015  30.07999802  55.80999756
H    10.01999950  32.56999969  59.92000198
H     7.59000015  32.31999969  60.68000031
H     5.46000004  31.38999939  60.52999878
H     6.61000013  29.70999908  56.59999847
H    14.78999996  31.51000023  55.94999695
H     4.21999979  29.20000076  59.43000031
H     4.69000006  28.71000099  57.90000153
S    11.69000053  29.10000038  52.47000122
C     9.18000031  28.16999817  53.30999756
C    10.52999973  28.25000000  53.52000427
C    11.17000008  27.77000046  54.71000290
C    10.39999962  27.34999847  55.77999878
C     8.98999977  27.25000000  55.63000107
C     8.14999962  26.76000214  56.66999817
C     6.80000019  26.63000107  56.40999603
C     6.25000000  26.91999817  55.13999939
C     7.00000000  27.55000114  54.16999817
C     8.39999962  27.65999985  54.38999939
C    12.58999920  28.05999947  54.73999786
C    13.00000000  28.87000084  53.64999771
C    14.27000046  29.43000031  53.48999786
C     4.82999992  26.45999908  54.89999771
H     4.43912029  26.83666420  53.95478058
H     8.71000004  28.51000023  52.38999939
H    10.88999939  27.26000023  56.75000000
H     8.60000038  26.28999901  57.54000092
H     6.24000025  25.95999908  57.04999924
H     6.63999987  27.82999992  53.18999863
H    14.48999977  29.99000168  52.58999634
H     4.94999981  25.38000107  54.84000397
H     4.21000004  26.73000145  55.77000046
S    16.10999870  28.25000000  56.84999847
C    18.60000038  29.15999985  56.00000000
C    17.23999977  29.11999893  55.79000092
C    16.60000038  29.40999985  54.54000092
C    17.39999962  30.00000000  53.57999802
C    18.78999901  30.19000053  53.75000000
C    19.62000084  30.78000069  52.75000000
C    20.93000031  31.07000160  53.06000137
C    21.54999924  30.66999817  54.27000046
C    20.78000069  29.97999954  55.18000031
C    19.38999939  29.75000000  54.98000336
C    15.18000031  29.07999992  54.50000000
C    14.80000019  28.38000107  55.66999817
C    13.50999928  27.88000107  55.77999878
C    22.98999977  31.04000092  54.54999924
H    23.49306107  30.57944870  55.40024567
H    19.07999992  28.87000084  56.91999817
H    16.90999985  30.46999931  52.72999573
H    19.14999962  31.18999863  51.86000061
H    21.52000046  31.63999939  52.34000397
H    21.25000000  29.71999931  56.12999725
H    13.21000004  27.22999954  56.59999847
H    23.09999847  32.13000107  54.56999969
H    23.52999878  30.76999855  53.62999725
