96

S    16.11999893  33.43000031  60.35999680
C    18.71999931  33.52999878  59.51000214
C    17.43999863  33.09999847  59.22000122
C    16.98999977  32.50000000  58.00000000
C    17.89999962  32.40999985  56.97000122
C    19.19000053  32.97999954  57.09000015
C    20.17999840  32.86999893  56.06999969
C    21.42000008  33.40999985  56.27999878
C    21.73999977  34.09000015  57.49000168
C    20.79999924  34.20999908  58.48999786
C    19.52000046  33.59000015  58.34999847
C    15.54999924  32.27000046  58.02999878
C    14.94999981  32.72000122  59.22999954
C    13.55999947  32.79000092  59.34999847
C    23.19999886  34.36999893  57.75000000
H    23.72206497  33.66199112  58.39364243
H    18.92000008  34.05999756  60.44000244
H    17.72999954  31.90000153  56.03000259
H    19.96999931  32.15999985  55.27000046
H    22.19000053  33.27000046  55.52000046
H    21.12999916  34.52000046  59.47999954
H    13.07999992  33.20000076  60.22999573
H    23.74000168  34.25000000  56.81000137
H    23.16999817  35.40999985  58.11999893
S    12.23000050  31.32999802  55.93999863
C     9.56999969  31.40000153  56.75000000
C    10.85999966  31.80999947  56.95999908
C    11.30000019  32.36999893  58.20999908
C    10.44000053  32.56999969  59.27000046
C     9.11000061  32.11000061  59.10999680
C     8.22000027  32.02999878  60.21999741
C     6.96000004  31.50000000  60.06000137
C     6.52999973  30.88999939  58.86000061
C     7.40999985  30.88000107  57.80000305
C     8.69999981  31.47999954  57.88000107
C    12.75000000  32.44999695  58.26000214
C    13.40999985  31.84999847  57.15999985
C    14.78000069  31.87000084  56.93999863
C     5.19999981  30.19000053  58.68000031
H     4.56510639  30.89623070  58.14497757
H     9.30000019  30.89999962  55.83000183
H    10.80999947  32.85000229  60.26000214
H     8.64000034  32.37999725  61.16000366
H     6.35999966  31.31999969  60.94999695
H     7.14999962  30.45000076  56.84999847
H    15.26000023  31.63000107  55.98999786
H     4.76999998  29.94999886  59.65999985
H     5.32999992  29.26000214  58.11000061
S    15.81999969  33.39999771  54.09999847
C    18.42000008  33.67000198  53.11999893
C    17.13999939  33.18999863  52.94000244
C    16.64999962  32.70999908  51.68000031
C    17.59000015  32.66999817  50.66999817
C    18.92000008  33.11000061  50.80999756
C    19.89999962  33.00000000  49.78000259
C    21.21000099  33.29000092  50.05000305
C    21.64999962  33.91999817  51.24000168
C    20.69000053  34.18000031  52.18999863
C    19.37000084  33.67000198  52.05999756
C    15.19999981  32.56999969  51.65999985
C    14.60000038  32.99000168  52.88000107
C    13.23999977  33.20000076  53.02999878
C    23.06999969  34.40000153  51.45000076
H    23.64818382  33.72902298  52.08528900
H    18.71000099  34.11000061  54.06999969
H    17.35999870  32.29999924  49.66999817
H    19.68000031  32.54000092  48.81999969
H    21.94999886  33.11000061  49.27000046
H    20.88000107  34.72999954  53.11000061
H    12.84000015  33.69999695  53.90999603
H    23.57999992  34.56999969  50.48999786
H    23.03999901  35.40999985  51.88999939
S    11.69999981  31.68999863  49.66999817
C     9.15999985  31.63000107  50.81999969
C    10.47999954  31.98999786  50.91999817
C    10.97000027  32.56999969  52.14000320
C    10.07999992  32.73999786  53.18000031
C     8.71999931  32.37999725  53.06999969
C     7.86999989  32.45999908  54.20999908
C     6.56000042  32.04999924  54.20999908
C     6.07999992  31.44000053  53.02000046
C     6.84999990  31.34000015  51.88999939
C     8.21000004  31.76000214  51.86999893
C    12.42000008  32.63999939  52.04000092
C    12.96000004  32.23999786  50.79000092
C    14.34000015  32.26000214  50.59999847
C     4.65999985  30.90999985  52.93000031
H     4.21050310  31.24534035  51.99533463
H     8.82999992  31.15999985  49.89999771
H    10.42000008  33.09999847  54.15000153
H     8.32999992  32.97000122  55.05000305
H     5.93999958  32.33000183  55.05000305
H     6.48000002  30.92000008  50.96000290
H    14.73999977  32.04000092  49.61000061
H     4.07000017  31.21999931  53.80000305
H     4.65000010  29.82000160  52.87000275
