96

S    15.47000027  32.93000031  60.34999847
C    18.12999916  33.27999878  59.51000214
C    16.84000015  32.90999985  59.20999908
C    16.44000053  32.47000122  57.90999985
C    17.38999939  32.43999863  56.90999985
C    18.71000099  32.88000107  57.15000153
C    19.76000023  32.79000092  56.18000031
C    21.07000160  33.06000137  56.51000214
C    21.40999985  33.69999695  57.72999573
C    20.38999939  33.84000015  58.64999771
C    19.09000015  33.31000137  58.47000122
C    15.00000000  32.27000046  57.81000137
C    14.34000015  32.52000046  59.03999710
C    12.96000004  32.52999878  59.18000031
C    22.81999969  34.11000061  58.06000137
H    23.31932259  33.44661713  58.76618576
H    18.45000076  33.63999939  60.48999786
H    17.15999985  32.06000137  55.90999985
H    19.44000053  32.44999695  55.20000076
H    21.87999916  32.80999756  55.83000183
H    20.65000153  34.24000168  59.62999725
H    12.53000069  32.65999985  60.17000198
H    23.39999962  34.34999847  57.15000153
H    22.72000122  35.09000015  58.54000092
S    11.69999981  31.40000153  55.59000015
C     9.02999973  31.09000015  56.38999939
C    10.31000042  31.47000122  56.70000076
C    10.72999954  32.02999878  57.95000076
C     9.77999973  32.14999771  58.95000076
C     8.43999958  31.87000084  58.61000061
C     7.48000050  32.04000092  59.65000153
C     6.17999983  31.60000038  59.47000122
C     5.78999996  30.89999962  58.29999924
C     6.67000008  30.84000015  57.25000000
C     8.01000023  31.31999969  57.35000229
C    12.17000008  32.20000076  58.08000183
C    12.84000015  31.87000084  56.86999893
C    14.22000027  31.94000053  56.69000244
C     4.59999990  29.96999931  58.20999908
H     3.85369539  30.41067505  57.54898834
H     8.90999985  30.45000076  55.52000046
H    10.06999969  32.45999908  59.94999695
H     7.82999992  32.36999893  60.63000107
H     5.42000008  31.71999931  60.24000168
H     6.44000006  30.17000008  56.42000198
H    14.59000015  31.65999985  55.72000122
H     4.28000021  29.79000092  59.23999786
H     5.00999975  28.98999977  57.94000244
S    15.75000000  33.86000061  54.08000183
C    18.40999985  34.17000198  53.20000076
C    17.14999962  33.65999985  53.00000000
C    16.80999947  33.02000046  51.77000046
C    17.80999947  32.88999939  50.81999969
C    19.13999939  33.36000061  50.96000290
C    20.15999985  33.20000076  49.99000168
C    21.44000053  33.59999847  50.26000214
C    21.73999977  34.36999893  51.42000198
C    20.72999954  34.56000137  52.32999802
C    19.40999985  34.04999924  52.19999695
C    15.38000011  32.79999924  51.69000244
C    14.65999985  33.22000122  52.84000015
C    13.27000046  33.25000000  52.88999939
C    23.12000084  34.86999893  51.77999878
H    23.46943665  34.29235840  52.63576126
H    18.56999969  34.69000244  54.13999939
H    17.52000046  32.40999985  49.88999939
H    19.85999870  32.75000000  49.03999710
H    22.14999962  33.34999847  49.47000122
H    20.84000015  35.00000000  53.31999969
H    12.76999950  33.72999954  53.73000336
H    23.74000168  34.71999741  50.89000320
H    23.06999969  35.94000244  52.02999878
S    12.23999977  31.77000046  49.36000061
C     9.52999973  31.61999893  50.06000137
C    10.80000019  32.04999924  50.35999680
C    11.13999939  32.70000076  51.58000183
C    10.13000011  32.88000107  52.51999664
C     8.88000011  32.23999786  52.34000397
C     7.88999987  32.09999847  53.34999847
C     6.63999987  31.54999924  53.18000031
C     6.34999990  31.02999878  51.88999939
C     7.26999998  31.04999924  50.86000061
C     8.52999973  31.68000031  51.05999756
C    12.57999992  32.81999969  51.76000214
C    13.30999947  32.34999847  50.63999939
C    14.70000076  32.29000092  50.56999969
C     5.03999996  30.29000092  51.70000076
H     4.40109777  30.81531906  50.99010849
H     9.34000015  31.12999916  49.09999847
H    10.40999985  33.25999832  53.50000000
H     8.06999969  32.52999878  54.33000183
H     5.98999977  31.59000015  54.03999710
H     7.09000015  30.56999969  49.89999771
H    15.21000004  31.94999886  49.68000031
H     4.42999983  30.20000076  52.60000229
H     5.26000023  29.27999878  51.33999634
