96

S    14.82999992  32.69000244  60.56999969
C    17.42000008  32.93999863  59.72000122
C    16.17000008  32.47000122  59.43000031
C    15.81999969  32.02999878  58.11000061
C    16.75000000  32.09000015  57.09999847
C    18.09000015  32.40999985  57.42000198
C    19.12999916  32.43000031  56.45000076
C    20.34000015  33.02999878  56.75000000
C    20.65000153  33.56999969  58.02999878
C    19.70000076  33.47999954  59.02000046
C    18.43000031  32.90999985  58.72000122
C    14.35999966  31.96000099  58.04000092
C    13.71000099  32.36999893  59.22999954
C    12.34000015  32.30999756  59.38999939
C    21.98999786  34.25000000  58.20999908
H    22.75025940  33.58210754  58.61499786
H    17.56000137  33.52000046  60.63999939
H    16.54999924  32.00000000  56.03000259
H    19.01000023  31.98999786  55.47000122
H    21.09999847  33.01000214  55.97999954
H    19.85000038  33.72000122  60.06999969
H    11.90000057  32.40999985  60.38000107
H    22.23999977  34.57999802  57.18999863
H    21.87999916  35.18000031  58.75999832
S    11.00000000  31.34000015  55.79000092
C     8.36999989  30.79000092  56.69000244
C     9.63999939  31.25000000  56.93000031
C    10.08999920  31.68999863  58.22000122
C     9.21000004  31.61000061  59.27999878
C     7.88999987  31.15999985  59.06999969
C     6.90000010  31.17000198  60.10000229
C     5.64000034  30.65999985  59.87999725
C     5.23999977  30.23999977  58.59000397
C     6.15999985  30.19000053  57.56000137
C     7.46999979  30.69999886  57.77999878
C    11.51999950  31.94999886  58.31999969
C    12.17000008  31.65999985  57.09000015
C    13.55000019  31.61999893  56.95000076
C     3.91000009  29.54999924  58.39000320
H     3.46264648  29.81273270  57.43138504
H     8.14000034  30.30999947  55.73999786
H     9.57999992  31.84000015  60.27999878
H     7.21000004  31.75000000  60.97000122
H     4.90999985  30.59999847  60.68999863
H     5.89999962  29.70999908  56.62000275
H    13.97999954  31.21999931  56.03000259
H     3.25999999  29.61000061  59.27000046
H     4.15000010  28.48999977  58.36000061
S    14.86999989  33.25000000  54.20999908
C    17.40999985  33.69999695  53.36999893
C    16.17000008  33.22999954  53.00000000
C    15.80000019  32.70999908  51.72000122
C    16.77999878  32.81999969  50.75000000
C    18.06999969  33.31000137  51.04999924
C    19.11999893  33.09000015  50.12000275
C    20.38000107  33.52000046  50.45000076
C    20.69000053  34.13000107  51.70000076
C    19.70000076  34.31000137  52.63999939
C    18.39999962  33.80000305  52.36000061
C    14.37999916  32.37999725  51.70999908
C    13.76000023  32.70999908  52.94000244
C    12.36999989  32.72999954  53.06999969
C    22.06999969  34.56000137  52.11999893
H    22.57458878  33.84220505  52.76672745
H    17.53999901  34.10000229  54.36999893
H    16.62999916  32.33000183  49.79000092
H    18.94000053  32.70000076  49.12000275
H    21.15999985  33.31999969  49.71000290
H    19.89999962  34.81999969  53.57999802
H    11.98999977  33.04999924  54.02999878
H    22.65999985  34.84000015  51.24000168
H    21.98999786  35.49000168  52.70999908
S    11.05000019  31.45999908  49.54000092
C     8.43999958  31.17000198  50.37000275
C     9.68999958  31.64999962  50.66999817
C    10.14000034  32.19000244  51.91999817
C     9.18000031  32.31999969  52.90999985
C     7.88999987  31.80999947  52.63000107
C     7.02000046  31.54999924  53.73000336
C     5.92000008  30.73999786  53.59000397
C     5.47999954  30.27000046  52.31999969
C     6.21999979  30.53999901  51.19999695
C     7.44999981  31.25000000  51.38000107
C    11.59000015  32.29000092  52.00000000
C    12.22000027  31.94000053  50.77999878
C    13.60000038  32.02000046  50.61000061
C     4.17000008  29.53000069  52.15999985
H     3.48060107  30.12700462  51.56299591
H     8.23999977  30.65999985  49.43000031
H     9.42000008  32.65000153  53.92000198
H     7.36000013  31.90999985  54.69999695
H     5.35000038  30.86000061  54.50000000
H     6.02999973  30.05000114  50.25000000
H    14.11999893  32.00000000  49.65999985
H     3.75000000  29.21999931  53.11999893
H     4.41000032  28.57000160  51.66999817
