96

S    14.98999977  33.00000000  60.26000214
C    17.64000130  33.32999802  59.45000076
C    16.38000107  32.85000229  59.16999817
C    16.05999947  32.26000214  57.90000153
C    17.07999992  32.04999924  56.98999786
C    18.38000107  32.56000137  57.23999786
C    19.43000031  32.42000198  56.27999878
C    20.68000031  32.95000076  56.47999573
C    20.95999908  33.62999725  57.69000244
C    19.97999954  33.74000168  58.64999771
C    18.64999962  33.27000046  58.46000290
C    14.61999989  32.07999802  57.74000168
C    13.96000004  32.37999725  58.95000076
C    12.57999992  32.52000046  59.03999710
C    22.36000061  34.13000107  58.02000046
H    22.80835533  33.47526169  58.76725769
H    17.79000092  33.70999908  60.45000076
H    16.84000015  31.45999908  56.11999893
H    19.19999886  31.84999847  55.38000107
H    21.44000053  32.81999969  55.72000122
H    20.17999840  34.26000214  59.59000015
H    12.10000038  33.08000183  59.85000229
H    22.93999863  34.22999954  57.09000015
H    22.14999962  35.13999939  58.39000320
S    11.38000011  31.38000107  55.38999939
C     8.78000069  31.09999847  56.19999695
C    10.01000023  31.65999985  56.47999573
C    10.38000011  32.06999969  57.80000305
C     9.42000008  32.00999832  58.79000092
C     8.13000011  31.48999977  58.54999924
C     7.11000013  31.38999939  59.54999924
C     5.80999947  31.07999992  59.22999954
C     5.46000004  30.79999924  57.88000107
C     6.43000031  30.79999924  56.90999985
C     7.77999973  31.11999893  57.19999695
C    11.82999992  32.11000061  57.93000031
C    12.48000050  31.64999962  56.76000214
C    13.86000061  31.68000031  56.63000107
C     4.07999992  30.27000046  57.56999969
H     3.70980334  30.39102554  56.55195999
H     8.59000015  30.63999939  55.22999573
H     9.71000004  32.19000244  59.81999969
H     7.34000015  31.68000031  60.56999969
H     5.07999992  31.02999878  60.04000092
H     6.25999975  30.45000076  55.89000320
H    14.37000084  31.59000015  55.66999817
H     3.31999993  30.72999954  58.20999908
H     3.98999977  29.21999931  57.87000275
S    11.61000061  28.95000076  52.81000137
C     9.06000042  28.40999985  53.77999878
C    10.42000008  28.22000122  53.89999771
C    10.98000050  27.62000084  55.06999969
C    10.11000061  27.09000015  56.00999832
C     8.71999931  27.29999924  55.89000320
C     7.78999996  26.67000008  56.77000046
C     6.44999981  26.52000046  56.50000000
C     5.92000008  27.06000137  55.30000305
C     6.72999954  27.79999924  54.47999954
C     8.13000011  27.90999985  54.72999954
C    12.41000080  27.88999939  55.15999603
C    12.84999943  28.64000130  54.03999710
C    14.11999893  29.20999908  54.01000214
C     4.44000006  26.90000153  55.04000092
H     4.17730761  26.90000153  53.98212814
H     8.76000023  29.00000000  52.91999817
H    10.44999981  26.44000053  56.81000137
H     8.18000031  26.28000069  57.70000076
H     5.78999996  25.88000107  57.08000183
H     6.46000004  28.31999969  53.55999756
H    14.45000076  29.73999977  53.11999893
H     4.03999996  25.96999931  55.47000122
H     3.88000011  27.70000076  55.54000092
S    15.95999908  27.53999901  57.11999893
C    18.47999954  28.22999954  56.09000397
C    17.11000061  28.31000137  56.00999832
C    16.48999977  29.04000092  54.94999695
C    17.27000046  29.60000038  53.95000076
C    18.68000031  29.63000107  54.08000183
C    19.52999878  30.13000107  53.04999924
C    20.89999962  30.12000084  53.18999863
C    21.48999977  29.43000031  54.29000092
C    20.72000122  28.90999985  55.30000305
C    19.29999924  28.92000008  55.15999603
C    15.05000019  28.87000084  55.00000000
C    14.60999966  28.05999947  56.07999802
C    13.30000019  27.62000084  56.19999695
C    22.98999977  29.27000046  54.34999847
H    23.40360069  29.41262245  55.34834290
H    18.97999954  27.56999969  56.79000092
H    16.84000015  30.00000000  53.04000092
H    19.12999916  30.55000114  52.12999725
H    21.50000000  30.43999863  52.34000397
H    21.25000000  28.45999908  56.13999939
H    13.02999973  26.94999886  57.01000214
H    23.32999992  30.02000046  53.62999725
H    23.28000069  28.26000023  54.02999878
