96

S    15.18000031  33.00000000  60.25000000
C    17.77000046  33.34999847  59.22000122
C    16.50000000  32.81999969  59.08000183
C    16.05999947  32.14999771  57.90000153
C    16.95999908  32.00999832  56.86000061
C    18.30000114  32.44999695  56.98999786
C    19.29000092  32.29999924  55.97000122
C    20.55999947  32.78000259  56.16000366
C    20.92000008  33.45000076  57.36000061
C    20.02000046  33.61000061  58.39000320
C    18.67000008  33.23999786  58.13999939
C    14.63000107  31.87000084  57.91999817
C    14.00000000  32.30999756  59.10999680
C    12.61000061  32.31999969  59.20000076
C    22.34999847  33.86000061  57.64999771
H    22.82543373  33.25683975  58.42346954
H    18.00000000  33.72999954  60.20999908
H    16.75000000  31.38999939  56.00000000
H    18.95000076  31.83000183  55.06000137
H    21.38000107  32.63000107  55.45999908
H    20.26000023  34.09000015  59.34000015
H    12.18000031  32.97000122  59.94999695
H    22.88999939  33.72999954  56.70000076
H    22.47999954  34.92000198  57.87000275
S    11.32999992  31.05999947  55.72000122
C     8.69000053  30.69000053  56.58000183
C     9.96999931  31.11999893  56.86000061
C    10.32999992  31.65999985  58.13999939
C     9.38000011  31.87000084  59.12000275
C     8.03999996  31.47999954  58.88000107
C     7.09999990  31.47000122  59.94999695
C     5.92000008  30.79000092  59.73999786
C     5.59000015  30.22999954  58.47999954
C     6.46000004  30.26000023  57.42000198
C     7.73999977  30.85000038  57.62000275
C    11.77999973  31.83000183  58.18999863
C    12.46999931  31.45000076  57.02000046
C    13.85000038  31.45999908  56.84000015
C     4.11999989  29.89000130  58.30999756
H     3.66521621  30.47979927  57.51412582
H     8.30000019  30.29999924  55.65000153
H     9.65999985  32.19000244  60.12000275
H     7.32999992  32.02999878  60.84999847
H     5.17000008  30.66999817  60.51000214
H     6.24000025  29.93999863  56.39999771
H    14.34999943  31.09000015  55.93999863
H     3.54999995  30.06000137  59.22999954
H     4.03999996  28.87000084  57.90999985
S    11.52999973  29.17000008  52.70000076
C     8.89000034  28.46999931  53.30999756
C    10.21000004  28.46999931  53.67000198
C    10.73999977  27.86000061  54.86000061
C     9.81999969  27.21999931  55.66999817
C     8.43000031  27.27000046  55.41999817
C     7.51999950  26.70000076  56.36000061
C     6.15999985  26.77999878  56.19999695
C     5.68000031  27.46999931  55.06000137
C     6.53999996  27.89999962  54.06999969
C     7.95000029  27.86999893  54.20000076
C    12.17000008  27.98999977  55.05000305
C    12.71000004  28.65999985  53.92000198
C    14.06000042  28.97999954  53.75000000
C     4.21000004  27.79999924  54.93000031
H     3.75579453  27.21804810  54.12804413
H     8.47999954  28.92000008  52.41000366
H    10.21000004  26.64999962  56.51000214
H     7.83999968  26.17000198  57.25000000
H     5.52999973  26.47000122  57.02999878
H     6.15000010  28.64000130  53.36999893
H    14.37999916  29.48999786  52.84000015
H     3.77999997  27.79000092  55.93999863
H     4.19000006  28.82999802  54.58000183
S    15.53999996  27.55000114  57.18000031
C    18.18000031  28.15999985  56.38999939
C    16.84000015  28.05000114  56.09000397
C    16.34000015  28.62999916  54.87999725
C    17.19000053  29.18999863  53.95000076
C    18.57999992  29.28999901  54.20999908
C    19.52999878  29.82000160  53.29999924
C    20.88999939  29.67000008  53.41999817
C    21.35999870  29.18999863  54.66999817
C    20.46999931  28.75000000  55.61999893
C    19.06999969  28.64000130  55.40000153
C    14.88999939  28.52999878  54.78000259
C    14.32000065  27.96999931  55.94999695
C    12.98999977  27.63000107  56.12999725
C    22.82999992  28.87000084  54.86999893
H    23.32155800  29.58240318  55.53253555
H    18.60000038  28.00000000  57.37999725
H    16.69000053  29.51999855  53.04000092
H    19.13999939  30.25000000  52.37999725
H    21.54999924  29.87999916  52.57999802
H    20.88000107  28.43000031  56.58000183
H    12.71999931  27.14999962  57.06999969
H    23.31000137  28.88999939  53.88000107
H    22.93000031  27.86000061  55.30000305
