96

S    14.19999981  33.15999985  60.27000046
C    16.84000015  33.43000031  59.47999954
C    15.62000084  32.83000183  59.26000214
C    15.24000072  32.09000015  58.09000015
C    16.22999954  32.06999969  57.11000061
C    17.56000137  32.52999878  57.28000259
C    18.59000015  32.37999725  56.31999969
C    19.85000038  32.90000153  56.51000214
C    20.13000107  33.68999863  57.65999603
C    19.11999893  33.87000275  58.57999802
C    17.82999992  33.29000092  58.47000122
C    13.81000042  31.87000084  57.97000122
C    13.10999966  32.45999908  59.06000137
C    11.72999954  32.49000168  59.12000275
C    21.47000122  34.31999969  57.95000076
H    22.06067848  33.65815735  58.58337402
H    16.90000153  34.18000031  60.26000214
H    16.00000000  31.61000061  56.14999771
H    18.39999962  31.84000015  55.38999939
H    20.61000061  32.79999924  55.73999786
H    19.27000046  34.38999939  59.52000046
H    11.03000069  32.79000092  59.89999771
H    21.91999817  34.50000000  56.95999908
H    21.40000153  35.29999924  58.43000031
S    10.55999947  31.15999985  55.56000137
C     7.88999987  30.82999992  56.43000031
C     9.17000008  31.27000046  56.65999985
C     9.52000046  31.73999977  57.97000122
C     8.52000046  31.96000099  58.88999939
C     7.26000023  31.31999969  58.73000336
C     6.28999996  31.25000000  59.77000427
C     5.14999962  30.50000000  59.58000183
C     4.85000038  29.89999962  58.33000183
C     5.72000027  30.02000046  57.28000259
C     6.89000034  30.81999969  57.43999863
C    10.95000076  31.97999954  58.06999969
C    11.64999962  31.56999969  56.90000153
C    13.03999996  31.53000069  56.86000061
C     3.44000006  29.41999817  58.06999969
H     2.93560338  29.98833466  57.28853989
H     7.60999966  30.34000015  55.50000000
H     8.80000019  32.44999695  59.81999969
H     6.40999985  31.80000114  60.68999863
H     4.30000019  30.71000099  60.22999573
H     5.53999996  29.51000023  56.33999634
H    13.48999977  31.11999893  55.96000290
H     2.86999989  29.53000069  59.00000000
H     3.44000006  28.34000015  57.84000015
S    10.39000034  28.75000000  52.77999878
C     7.81000042  28.19999886  53.73000336
C     9.17000008  28.19999886  53.94000244
C     9.77000046  27.69000053  55.13999939
C     8.98999977  27.11000061  56.11999893
C     7.59999990  27.00000000  55.87999725
C     6.76000023  26.21999931  56.72999954
C     5.40000010  26.18999863  56.53999710
C     4.78999996  26.64999962  55.34000015
C     5.61999989  27.30999947  54.45999908
C     6.98999977  27.57999802  54.71000290
C    11.21000099  27.90999985  55.14999771
C    11.68000031  28.55999947  53.97999573
C    13.01000023  28.95999908  53.86000061
C     3.30000019  26.56999969  55.07999802
H     3.05148005  26.79721832  54.04331589
H     7.40999985  28.59000015  52.80000305
H     9.39000034  26.57999992  56.97999954
H     7.14999962  25.68000031  57.58999634
H     4.77999973  25.94000053  57.39999771
H     5.40000010  27.53999901  53.41999817
H    13.34000015  29.46000099  52.95999908
H     3.03999996  25.52999878  55.31000137
H     2.76999998  27.23999977  55.76000214
S    14.78000069  27.57999802  57.08000183
C    17.34000015  28.50000000  56.37000275
C    15.98999977  28.45000076  56.11999893
C    15.36000061  28.98999977  54.94999695
C    16.17000008  29.69000053  54.09000015
C    17.57999992  29.67000008  54.20000076
C    18.47999954  30.05000114  53.15999985
C    19.84000015  29.86999893  53.22000122
C    20.42000008  29.33000183  54.40000153
C    19.56999969  28.81000137  55.34999847
C    18.17000008  29.03000069  55.34999847
C    13.93000031  28.71000099  54.88999939
C    13.43000031  27.98999977  56.00999832
C    12.10999966  27.60000038  56.18000031
C    21.90999985  29.20000076  54.62999725
H    22.25148773  29.70511436  55.53351593
H    17.81999969  28.15000153  57.28000259
H    15.69000053  30.07999802  53.18999863
H    18.13999939  30.40999985  52.18999863
H    20.46999931  30.15000153  52.38999939
H    19.97999954  28.42000008  56.27999878
H    11.85999966  27.21999931  57.15999985
H    22.49000168  29.60000038  53.79000092
H    22.15999985  28.12999916  54.66999817
