96

S    14.70000076  32.73999786  60.31999969
C    17.35999870  33.02999878  59.45000076
C    16.10000038  32.50999832  59.26000214
C    15.77000046  31.93000031  57.98999786
C    16.79999924  31.73000145  57.08000183
C    18.06999969  32.34000015  57.23999786
C    19.13999939  32.20999908  56.30000305
C    20.38000107  32.78000259  56.49000168
C    20.62999916  33.47999954  57.69000244
C    19.63999939  33.63999939  58.63999939
C    18.35000038  33.08000183  58.43999863
C    14.34000015  31.78999901  57.80000305
C    13.67000008  32.19000244  58.97999573
C    12.28999996  32.11999893  59.13000107
C    21.96000099  34.15000153  57.94000244
H    22.49785423  33.61922455  58.72555161
H    17.63000107  33.40999985  60.44000244
H    16.48999977  31.27000046  56.14999771
H    19.04999924  31.65999985  55.37000275
H    21.07999992  32.81999969  55.65999985
H    19.95000076  34.13999939  59.54999924
H    11.75000000  32.34999847  60.05000305
H    22.60999870  34.00000000  57.06999969
H    21.76000214  35.19000244  58.18999863
S    11.07999992  30.79000092  55.59000015
C     8.42000008  30.58000183  56.46999741
C     9.68999958  31.04999924  56.65999985
C    10.06000042  31.73999977  57.85999680
C     9.06999969  31.97000122  58.80000305
C     7.78999996  31.40000153  58.66000366
C     6.76000023  31.40000153  59.64000320
C     5.51999998  30.84000015  59.47999954
C     5.19000006  30.13000107  58.29999924
C     6.17000008  30.00000000  57.34000397
C     7.46000004  30.59000015  57.50999832
C    11.51000023  31.81999969  58.01000214
C    12.18000031  31.44000053  56.81999969
C    13.55999947  31.38999939  56.70000076
C     3.81000018  29.54999924  58.06999969
H     3.27710772  29.94078827  57.20315933
H     8.19999981  29.94999886  55.61000061
H     9.30000019  32.21999741  59.82999802
H     6.84000015  32.13000107  60.45000076
H     4.78999996  31.05999947  60.26000214
H     6.05000019  29.34999847  56.47999573
H    14.01999950  31.04000092  55.77999878
H     3.28000021  29.65999985  59.02000046
H     3.91000009  28.47999954  57.85999680
S    11.10000038  28.55999947  52.69000244
C     8.52000046  28.00000000  53.67000198
C     9.88000011  28.06999969  53.88000107
C    10.47000027  27.53999901  55.06999969
C     9.63999939  27.01000023  56.04999924
C     8.26000023  26.80999947  55.81999969
C     7.42999983  26.38999939  56.90999985
C     6.07999992  26.42000008  56.66999817
C     5.46999979  26.71999931  55.43000031
C     6.28000021  27.26000023  54.45999908
C     7.68000031  27.37999916  54.64000320
C    11.90000057  27.78000069  55.08999634
C    12.36999989  28.40999985  53.90999603
C    13.68999958  28.84000015  53.80000305
C     3.96000004  26.65999985  55.27000046
H     3.59651875  26.83817673  54.25795746
H     8.14000034  28.34000015  52.70999908
H     9.98999977  26.88999939  57.06999969
H     7.78999996  26.18000031  57.90999985
H     5.36999989  26.14000130  57.44999695
H     5.84000015  27.67000008  53.54999924
H    13.96000004  29.14999962  52.80000305
H     3.78999996  25.62000084  55.58000183
H     3.51000023  27.34000015  56.00000000
S    15.39999962  27.50000000  57.15000153
C    17.89999962  28.25000000  56.38999939
C    16.54999924  28.43000031  56.18000031
C    16.00000000  28.88999939  54.93999863
C    16.86000061  29.25000000  53.92000198
C    18.22999954  29.37000084  54.27000046
C    19.15999985  30.03999901  53.43999863
C    20.52000046  30.10000038  53.62999725
C    21.09000015  29.30000114  54.65999985
C    20.22999954  28.74000168  55.59000015
C    18.81999969  28.78000069  55.45000076
C    14.57999992  28.57000160  54.85000229
C    14.11999893  27.79999924  55.94999695
C    12.79000092  27.43999863  56.11999893
C    22.57999802  29.07999992  54.79999924
H    23.06377220  29.61357307  55.61814499
H    18.19000053  27.60000038  57.21000290
H    16.46000099  29.50000000  52.94000244
H    18.72999954  30.42000008  52.50999832
H    21.14999962  30.59000015  52.90000153
H    20.61000061  28.22999954  56.46999741
H    12.51000023  26.93000031  57.04000092
H    23.13999939  29.37000084  53.90999603
H    22.70999908  27.98999977  54.87999725
