96

S    16.27000046  32.90999985  60.54000092
C    18.79999924  33.54000092  59.71000290
C    17.59000015  33.01000214  59.36000061
C    17.22999954  32.50000000  58.06000137
C    18.15999985  32.62000275  57.04999924
C    19.43000031  33.16999817  57.36999893
C    20.45999908  33.11000061  56.38999939
C    21.70000076  33.63999939  56.63000107
C    21.90000153  34.34000015  57.84999847
C    20.95999908  34.41999817  58.85000229
C    19.76000023  33.68000031  58.67000198
C    15.84000015  32.09000015  58.02999878
C    15.17000008  32.36000061  59.25000000
C    13.78999901  32.36999893  59.29000092
C    23.32999992  34.71999741  58.15999985
H    23.82093048  34.07965851  58.89283752
H    18.94000053  34.08000183  60.65000153
H    17.87999916  32.52000046  56.00000000
H    20.29000092  32.57999802  55.45000076
H    22.46999931  33.50000000  55.87999725
H    21.17000198  34.93000031  59.79000092
H    13.26000023  32.79000092  60.13999939
H    23.87000084  34.76000214  57.21000290
H    23.15999985  35.72000122  58.56999969
S    12.51999950  31.14000130  55.72000122
C     9.88000011  30.72000122  56.62000275
C    11.17000008  31.14000130  56.86000061
C    11.59000015  31.68999863  58.11999893
C    10.60999966  31.84999847  59.06999969
C     9.27999973  31.38999939  58.89999771
C     8.26000023  31.68000031  59.85000229
C     6.94000006  31.37000084  59.64000320
C     6.63999987  30.56999969  58.50000000
C     7.53999996  30.42000008  57.47000122
C     8.89000034  30.81999969  57.63000107
C    13.02999973  31.90999985  58.20000076
C    13.68000031  31.61999893  56.97000122
C    15.06000042  31.75000000  56.90999985
C     5.27999973  29.92000198  58.43999863
H     4.57010841  30.55890274  57.91468048
H     9.61999989  30.26000023  55.66999817
H    10.86999989  32.23999786  60.05000305
H     8.65999985  32.37999725  60.58000183
H     6.15999985  31.55999947  60.37000275
H     7.25000000  29.90999985  56.56000137
H    15.59999943  31.51000023  56.00000000
H     4.98000002  29.56999969  59.43999863
H     5.46999979  28.95999908  57.94000244
S    11.98999977  29.04000092  52.85999680
C     9.39999962  28.42000008  53.88999939
C    10.77000046  28.31000137  53.93000031
C    11.44000053  27.67999840  55.02999878
C    10.67999935  27.17000008  56.06999969
C     9.26999950  27.25000000  56.03000259
C     8.43000031  26.54999924  56.95000076
C     7.09000015  26.35000038  56.72999954
C     6.44999981  27.00000000  55.63999939
C     7.20000029  27.72999954  54.73999786
C     8.60000038  27.86000061  54.92000198
C    12.89000034  27.84000015  55.06999969
C    13.30999947  28.64000130  53.97999573
C    14.59000015  29.17000008  53.81000137
C     4.94999981  26.87999916  55.54000092
H     4.62349176  27.02905846  54.51079178
H     8.92000008  28.72999954  52.95999908
H    11.19999981  26.73999977  56.91999817
H     8.92000008  26.15999985  57.84000015
H     6.44999981  25.78000069  57.39999771
H     6.75000000  28.26999855  53.90999603
H    14.81999969  29.89000130  53.02000046
H     4.75000000  25.82999992  55.77000046
H     4.42999983  27.50999832  56.26999664
S    16.40999985  27.78000069  57.04999924
C    18.89999962  28.71999931  56.23000336
C    17.53000069  28.71999931  56.05999756
C    16.92000008  29.21999931  54.86999893
C    17.69000053  29.89000130  53.93000031
C    19.07999992  30.00999832  54.13999939
C    19.92000008  30.61000061  53.15999985
C    21.28999901  30.56999969  53.23999786
C    21.94000053  29.96000099  54.34999847
C    21.12999916  29.40000153  55.31000137
C    19.70999908  29.40999985  55.28999710
C    15.52000046  28.82999802  54.79000092
C    15.06000042  28.12999916  55.93999863
C    13.78999901  27.59000015  56.11000061
C    23.36999893  30.29999924  54.71000290
H    23.70629883  29.82775116  55.63303375
H    19.27000046  28.16999817  57.09000015
H    17.23999977  30.28000069  53.02000046
H    19.40000153  30.96999931  52.27000427
H    21.90999985  31.09000015  52.50999832
H    21.54999924  29.06999969  56.25999832
H    13.40999985  27.13999939  57.02000046
H    23.34000015  31.38000107  54.92000198
H    23.88999939  29.99000168  53.80000305
