96

S    14.73000050  32.85000229  60.44000244
C    17.30999947  33.22000122  59.52999878
C    16.06999969  32.69000244  59.29000092
C    15.73999977  32.14999771  58.00000000
C    16.68000031  32.04000092  56.98999786
C    17.97999954  32.54000092  57.25999832
C    18.96999931  32.56999969  56.24000168
C    20.23999977  33.02999878  56.49000168
C    20.52999878  33.68000031  57.71999741
C    19.61000061  33.67000198  58.74000168
C    18.30000114  33.15000153  58.52000427
C    14.28999996  32.06999969  57.90999985
C    13.63999939  32.30999756  59.15000153
C    12.25999928  32.26000214  59.27999878
C    21.90000153  34.31000137  57.83000183
H    22.57666779  33.76154327  58.48529816
H    17.61999893  33.86000061  60.35999680
H    16.40999985  31.68999863  56.00000000
H    18.81999969  32.16999817  55.24000168
H    21.04000092  32.90000153  55.77000046
H    19.96999931  34.04999924  59.69999695
H    11.87999916  32.43000031  60.28999710
H    22.27999878  34.59000015  56.84000015
H    21.87999916  35.26000214  58.37999725
S    11.07999992  31.38999939  55.54000092
C     8.36999989  31.18999863  56.33999634
C     9.67000008  31.56999969  56.59000015
C    10.06000042  31.77999878  57.95999908
C     9.11999989  31.67000008  58.96999741
C     7.76999998  31.31999969  58.74000168
C     6.76999998  31.09999847  59.72999954
C     5.50000000  30.73999786  59.34999847
C     5.10999966  30.62999916  57.98999786
C     6.05999994  30.76999855  57.01000214
C     7.39000034  31.11000061  57.36999893
C    11.49000072  31.94000053  58.15999985
C    12.13000107  31.84999847  56.88999939
C    13.52000046  31.84000015  56.76000214
C     3.70000005  30.20999908  57.62000275
H     3.30921292  30.74289131  56.75316238
H     8.21000004  30.81999969  55.33000183
H     9.47000027  31.65999985  60.00000000
H     7.09999990  31.17000198  60.76000214
H     4.76000023  30.59999847  60.13999939
H     5.75999975  30.59000015  55.97999954
H    13.99000072  31.61000061  55.80999756
H     2.96000004  30.19000053  58.43000031
H     3.84000015  29.13999939  57.42000198
S    15.22999954  33.38000107  53.83999634
C    17.90999985  33.68000031  53.02999878
C    16.62999916  33.27999878  52.75000000
C    16.25000000  32.93999863  51.40999603
C    17.26000023  32.93999863  50.45999908
C    18.59000015  33.36000061  50.68000031
C    19.63000107  33.39999771  49.71000290
C    20.90999985  33.75999832  50.05000305
C    21.18999863  34.25000000  51.36000061
C    20.19000053  34.33000183  52.29999924
C    18.89000130  33.81999969  52.01000214
C    14.80000019  32.84000015  51.30000305
C    14.11999893  32.95000076  52.52999878
C    12.74000072  32.86000061  52.69000244
C    22.65000153  34.50999832  51.65999985
H    23.11999702  33.85485458  52.39347839
H    18.15000153  34.09000015  54.01000214
H    16.93000031  32.70999908  49.45000076
H    19.45999908  33.06999969  48.68999863
H    21.68999863  33.48999786  49.34999847
H    20.36000061  34.59999847  53.34000015
H    12.18000031  32.97000122  53.61999893
H    23.28000069  34.56999969  50.77000046
H    22.70000076  35.49000168  52.14000320
S    11.54000092  32.29999924  48.88999939
C     8.84000015  31.97999954  49.72999954
C    10.17000008  32.22999954  50.00999832
C    10.57000065  32.57999802  51.33999634
C     9.56999969  32.65999985  52.29999924
C     8.19000053  32.47000122  52.05999756
C     7.20000029  32.43999863  53.08000183
C     5.92999983  31.97000122  52.84000015
C     5.59000015  31.52000046  51.53999710
C     6.50000000  31.63000107  50.51000214
C     7.82999992  32.07999802  50.72000122
C    12.01000023  32.73999786  51.51000214
C    12.64000034  32.57999802  50.25000000
C    14.02999973  32.65999985  50.14999771
C     4.28999996  30.79000092  51.26999664
H     3.69444871  31.45645142  50.64608765
H     8.69999981  31.50000000  48.76999664
H     9.82999992  32.83000183  53.34000015
H     7.57999992  32.72000122  54.06000137
H     5.28999996  31.73000145  53.68000031
H     6.14000034  31.28000069  49.54999924
H    14.50000000  32.29000092  49.23999786
H     3.68000007  30.58000183  52.15999985
H     4.57999992  29.87999916  50.73999786
