96

S    15.03999901  33.15000153  60.31999969
C    17.68000031  33.55999756  59.56999969
C    16.45000076  33.02000046  59.26000214
C    16.11999893  32.36999893  58.02999878
C    17.14999962  32.26000214  57.11000061
C    18.45000076  32.76000214  57.34000397
C    19.54000092  32.50000000  56.45999908
C    20.79000092  32.95999908  56.79999924
C    21.11999893  33.59000015  58.02999878
C    20.03999901  33.86000061  58.82999802
C    18.70000076  33.43000031  58.59000397
C    14.68999958  32.11000061  57.87000275
C    13.99000072  32.49000168  59.05000305
C    12.61999989  32.33000183  59.18000031
C    22.50000000  34.10000229  58.36999893
H    23.06414986  33.53585434  59.11267853
H    17.73999977  34.11999893  60.50000000
H    17.02999878  31.77000046  56.14999771
H    19.31999969  32.02999878  55.51000214
H    21.50000000  32.95000076  55.97000122
H    20.20000076  34.36999893  59.78000259
H    12.18000031  32.49000168  60.15999603
H    23.01000214  34.11999893  57.39999771
H    22.52000046  35.13999939  58.70999908
S    11.44999981  30.95000076  55.63000107
C     8.76999950  30.76999855  56.38000107
C    10.06000042  31.09999847  56.72000122
C    10.44000053  31.73000145  57.95000076
C     9.47000027  32.00999832  58.89999771
C     8.15999985  31.51000023  58.68000031
C     7.23000002  31.54000092  59.75999832
C     6.05000019  30.85000038  59.58000183
C     5.64000034  30.38999939  58.29999924
C     6.48999977  30.46999931  57.22000122
C     7.81000042  30.96999931  57.39999771
C    11.89000034  31.81999969  58.09999847
C    12.56000042  31.51000023  56.88999939
C    13.94000053  31.61999893  56.79999924
C     4.25000000  29.84999847  58.04000092
H     3.71527553  30.40611267  57.26999664
H     8.47000027  30.29999924  55.44000244
H     9.65999985  32.40000153  59.88999939
H     7.57000017  31.91999817  60.70999908
H     5.42000008  30.65999985  60.44000244
H     6.17999983  30.29000092  56.18999863
H    14.47999954  31.25999832  55.91999817
H     3.75000000  29.84999847  59.02000046
H     4.55000019  28.81000137  57.84999847
S    15.44999981  33.02999878  54.18000031
C    18.12000084  33.47999954  53.27000046
C    16.82999992  33.04000092  53.06999969
C    16.42000008  32.65999985  51.75000000
C    17.29999924  32.52999878  50.70000076
C    18.61999893  33.02000046  50.86000061
C    19.60000038  33.02999878  49.81999969
C    20.86999893  33.50000000  50.06999969
C    21.18999863  34.10000229  51.31000137
C    20.25000000  34.17000198  52.30999756
C    19.00000000  33.48999786  52.15999985
C    14.98000050  32.43000031  51.72000122
C    14.27999973  32.52999878  52.95000076
C    12.89000034  32.59000015  53.02999878
C    22.56999969  34.64999771  51.62000275
H    22.99800873  34.23625565  52.53308868
H    18.38999939  34.03000259  54.16999817
H    16.97000122  32.30999756  49.68999863
H    19.31999969  32.65999985  48.82999802
H    21.61999893  33.23999786  49.33000183
H    20.43999863  34.70000076  53.23999786
H    12.36999989  32.93000031  53.92000198
H    23.12999916  34.52000046  50.68999863
H    22.43999863  35.72999954  51.77000046
S    11.76000023  31.42000008  49.40999985
C     9.06999969  31.30000114  50.18000031
C    10.34999943  31.70000076  50.45000076
C    10.70000076  32.23999786  51.73999786
C     9.72999954  32.42000198  52.70000076
C     8.47000027  31.80000114  52.50999832
C     7.55000019  31.70000076  53.59000397
C     6.34000015  31.07999992  53.36999893
C     5.92000008  30.72000122  52.06999969
C     6.76000023  30.86000061  51.00000000
C     8.09000015  31.31999969  51.20999908
C    12.15000057  32.34999847  51.86999893
C    12.84999943  31.96000099  50.70000076
C    14.22999954  32.04999924  50.59999847
C     4.50000000  30.23999977  51.86999893
H     3.92140651  30.82573700  51.15568542
H     8.80000019  30.95999908  49.18000031
H    10.11000061  32.73999786  53.66000366
H     7.69999981  32.23999786  54.52000046
H     5.65999985  31.14000130  54.22000122
H     6.43000031  30.38000107  50.07999802
H    14.63000107  32.18000031  49.59000015
H     4.00000000  30.06000137  52.83000183
H     4.51999998  29.20000076  51.51000214
