96

S    15.00000000  32.97000122  60.14999771
C    17.57999992  33.48999786  59.22000122
C    16.29999924  33.06000137  58.94000244
C    15.88000107  32.69000244  57.63000107
C    16.82999992  32.81999969  56.63000107
C    18.17000008  33.16999817  56.86999893
C    19.18000031  33.04000092  55.86999893
C    20.40999985  33.61000061  56.10000229
C    20.79000092  33.91999817  57.43000031
C    19.88999939  33.97999954  58.47999954
C    18.54999924  33.59000015  58.20000076
C    14.44000053  32.44999695  57.58999634
C    13.83999920  32.57999802  58.87000275
C    12.46999931  32.55000305  59.06999969
C    22.22999954  34.31000137  57.63999939
H    22.79585075  33.68756485  58.33316803
H    17.86999893  33.81000137  60.21999741
H    16.55999947  32.47000122  55.63000107
H    18.93000031  32.52999878  54.93999863
H    21.17000198  33.46999741  55.34000015
H    20.23999977  34.31000137  59.45999908
H    12.05999947  32.84000015  60.04000092
H    22.72999954  34.34999847  56.65999985
H    22.11000061  35.38000107  57.84999847
S    11.05999947  31.70999908  55.40000153
C     8.52000046  31.14999962  56.45000076
C     9.72999954  31.80000114  56.58000183
C    10.22999954  32.22999954  57.84999847
C     9.44000053  32.18000031  58.99000168
C     8.14000034  31.61999893  58.86000061
C     7.23000002  31.70999908  59.94999695
C     5.91000032  31.37000084  59.77000427
C     5.45000029  30.90999985  58.50999832
C     6.32000017  30.73999786  57.45999908
C     7.67000008  31.14000130  57.58999634
C    11.67000008  32.43000031  57.93000031
C    12.23000050  32.14999771  56.65999985
C    13.60999966  32.26000214  56.49000168
C     4.00999975  30.48000145  58.30999756
H     3.60568738  30.95524406  57.41625595
H     8.23000050  30.59999847  55.56999969
H     9.82999992  32.55000305  59.93000031
H     7.75000000  32.04000092  60.84000015
H     5.25000000  31.42000008  60.63999939
H     5.92999983  30.65000153  56.45000076
H    14.17000008  31.81999969  55.66999817
H     3.51000023  30.76999855  59.23999786
H     4.07000017  29.38999939  58.23999786
S    11.77000046  29.33000183  52.64999771
C     9.19999981  28.52999878  53.50000000
C    10.55999947  28.55999947  53.68999863
C    11.18000031  28.05999947  54.87999725
C    10.39000034  27.46999931  55.84999847
C     8.98999977  27.43000031  55.63999939
C     8.06999969  27.10000038  56.68000031
C     6.71000004  27.01999855  56.50000000
C     6.10000038  27.46000099  55.28999710
C     6.91999960  28.05000114  54.36000061
C     8.34000015  27.95999908  54.47000122
C    12.61000061  28.32999992  54.97000122
C    13.04999924  29.09000015  53.86000061
C    14.35999966  29.51000023  53.64999771
C     4.59999990  27.57999802  55.15999603
H     4.18154430  27.31757736  54.18833160
H     8.80999947  29.03000069  52.61000061
H    10.77999973  27.11000061  56.79999924
H     8.48999977  26.80000114  57.63999939
H     6.05999994  26.77000046  57.32999802
H     6.40999985  28.52999878  53.53000259
H    14.70999908  29.96999931  52.72999573
H     4.17000008  27.10000038  56.04000092
H     4.32000017  28.64000130  55.25000000
S    16.04999924  28.25000000  57.02000046
C    18.64999962  28.90999985  56.13999939
C    17.29999924  28.81000137  55.89000320
C    16.79999924  29.21999931  54.61000061
C    17.61000061  29.72999954  53.61999893
C    19.01000023  29.76000023  53.83999634
C    19.82999992  30.45999908  52.90000153
C    21.12999916  30.76999855  53.20999908
C    21.68000031  30.31999969  54.43999863
C    20.88999939  29.70000076  55.37000275
C    19.52000046  29.38999939  55.13000107
C    15.34000015  29.18999863  54.59000015
C    14.85000038  28.52000046  55.73999786
C    13.55000019  28.08000183  55.97000122
C    23.02999878  30.84000015  54.86999893
H    23.52256775  30.24748802  55.64097595
H    19.04999924  28.59999847  57.11000061
H    17.29999924  30.15999985  52.67000198
H    19.40000153  30.63999939  51.91999817
H    21.83000183  31.18999863  52.49000168
H    21.11999893  29.77000046  56.44000244
H    13.23999977  27.63999939  56.91999817
H    22.82999992  31.88999939  55.12000275
H    23.75000000  30.85000038  54.02999878
