96

S    14.39000034  32.52999878  60.37000275
C    17.02000046  32.93000031  59.61999893
C    15.77000046  32.49000168  59.26000214
C    15.42000008  32.07999802  57.93000031
C    16.39999962  32.02000046  56.95999908
C    17.70000076  32.47000122  57.29999924
C    18.71000099  32.62000275  56.31999969
C    19.88000107  33.31000137  56.55000305
C    20.20999908  33.68999863  57.88000107
C    19.22999954  33.67000198  58.85000229
C    18.01000023  32.97000122  58.61000061
C    13.96999931  31.90000153  57.84000015
C    13.27000046  32.18000031  59.03999710
C    11.87999916  32.14999771  59.15999985
C    21.65999985  34.02000046  58.15000153
H    22.05892944  33.52133942  59.03334427
H    17.23999977  33.34000015  60.59999847
H    16.15999985  31.68000031  55.94999695
H    18.60999870  32.09000015  55.37000275
H    20.52999878  33.38000107  55.68999863
H    19.45000076  34.04000092  59.85000229
H    11.43000031  32.42000198  60.11000061
H    22.23999977  33.72000122  57.27000427
H    21.84000015  35.09999847  58.18000031
S    10.64000034  31.17000198  55.47000122
C     7.96999979  31.01000023  56.35000229
C     9.26999950  31.38000107  56.58000183
C     9.68999958  31.78999901  57.88999939
C     8.75000000  31.78999901  58.90999603
C     7.40999985  31.37000084  58.70999908
C     6.46000004  31.15999985  59.75000000
C     5.18000031  30.73999786  59.47999954
C     4.78999996  30.30999947  58.18000031
C     5.66999960  30.52999878  57.15000153
C     7.00000000  30.96999931  57.38999939
C    11.13000011  31.93000031  58.00000000
C    11.77000046  31.56999969  56.79000092
C    13.15999985  31.53000069  56.76000214
C     3.38999987  29.79999924  57.94000244
H     2.88385940  30.39168549  57.17722321
H     7.83999968  30.59999847  55.34999847
H     9.00000000  31.88999939  59.95999908
H     6.76999998  31.22999954  60.79000092
H     4.51000023  30.71000099  60.34000015
H     5.55000019  30.06999969  56.17000198
H    13.56999969  31.47999954  55.76000214
H     2.79999995  29.79000092  58.87000275
H     3.38999987  28.74000168  57.63000107
S    10.84000015  29.04999924  52.63999939
C     8.23999977  28.38000107  53.50999832
C     9.59999943  28.35000038  53.69999695
C    10.14000034  27.65000153  54.82999802
C     9.30000019  27.07999992  55.76000214
C     7.90000010  27.06000137  55.56999969
C     7.02000046  26.57999992  56.59000015
C     5.66999960  26.65999985  56.36000061
C     5.10999966  27.23999977  55.19000244
C     5.96000004  27.76000023  54.23999786
C     7.36999989  27.70999908  54.40000153
C    11.56999969  27.89999962  54.86999893
C    12.13000107  28.61999893  53.77999878
C    13.43000031  29.11999893  53.81999969
C     3.61000013  27.14999962  55.04000092
H     3.30414343  27.18556595  53.99439621
H     7.92999983  28.84000015  52.56999969
H     9.67000008  26.71999931  56.72000122
H     7.42999983  26.21999931  57.52999878
H     4.88999987  26.28000069  57.02000046
H     5.61999989  28.15999985  53.29000092
H    13.88000011  29.54999924  52.93000031
H     3.26999998  26.15999985  55.37000275
H     3.03999996  27.88000107  55.61999893
S    14.85999966  27.69000053  57.22999954
C    17.50000000  28.52000046  56.66999817
C    16.15999985  28.52999878  56.35000229
C    15.69000053  29.03000069  55.10000229
C    16.64999962  29.56000137  54.25000000
C    18.02999878  29.59000015  54.54000092
C    19.04999924  30.05000114  53.66000366
C    20.38999939  29.93999863  53.94000244
C    20.82999992  29.40000153  55.18000031
C    19.85999870  29.13999939  56.11999893
C    18.47999954  29.04999924  55.79999924
C    14.27000046  28.80000114  54.88999939
C    13.69999981  28.02999878  55.93000031
C    12.38999939  27.56000137  55.94999695
C    22.27999878  29.11999893  55.48999786
H    22.67652893  29.51652908  56.42467880
H    17.79999924  28.09999847  57.63000107
H    16.35000038  30.10999870  53.36000061
H    18.68999863  30.43999863  52.70999908
H    21.07999992  30.15000153  53.11999893
H    20.20999908  28.92000008  57.12999725
H    12.03999996  26.86000061  56.70999908
H    22.80999947  29.44000053  54.58000183
H    22.39000130  28.02999878  55.51000214
