96

S    14.94999981  32.34000015  60.30000305
C    17.46999931  33.06000137  59.40999985
C    16.26000023  32.47999954  59.10999680
C    15.80999947  32.15999985  57.78999710
C    16.79000092  32.27000046  56.81000137
C    18.09000015  32.73999786  57.09000015
C    19.04000092  32.86000061  56.04000092
C    20.30999947  33.34000015  56.26999664
C    20.68000031  33.74000168  57.57999802
C    19.77000046  33.70999908  58.61000061
C    18.48999977  33.11999893  58.41999817
C    14.37999916  31.93000031  57.75000000
C    13.76999950  31.97000122  59.02999878
C    12.39999962  31.86000061  59.25000000
C    22.10000038  34.22000122  57.81999969
H    22.60594749  33.72117996  58.64661407
H    17.63000107  33.56999969  60.34999847
H    16.50000000  31.94999886  55.80999756
H    18.72999954  32.56000137  55.04000092
H    21.02000046  33.45999908  55.45000076
H    19.98999977  34.20000076  59.54999924
H    11.92999935  31.81999969  60.22999573
H    22.65000153  33.81999969  56.95999908
H    22.13999939  35.30999756  57.74000168
S    11.02000046  31.14999962  55.56999969
C     8.39999962  30.65000153  56.42000198
C     9.68000031  31.05999947  56.72000122
C    10.14000034  31.38000107  58.04000092
C     9.21000004  31.31999969  59.06999969
C     7.88999987  30.90999985  58.79000092
C     6.96000004  30.78000069  59.86000061
C     5.66999960  30.32999992  59.71000290
C     5.22000027  30.10000038  58.39000320
C     6.05999994  30.22999954  57.30999756
C     7.44000006  30.56999969  57.45999908
C    11.56999969  31.64999962  58.13999939
C    12.18000031  31.47999954  56.88000107
C    13.55000019  31.56999969  56.68000031
C     3.84999990  29.48999786  58.18000031
H     3.38035560  30.00233841  57.34033203
H     8.07999992  30.59999847  55.38999939
H     9.48000050  31.61000061  60.07999802
H     7.34000015  31.21000099  60.79000092
H     5.05000019  30.13999939  60.58000183
H     5.80999947  29.94999886  56.29000092
H    13.92000008  31.54999924  55.65000153
H     3.25999999  29.60000038  59.09999847
H     3.96000004  28.39999962  58.08000183
S    11.44000053  28.95999908  52.78999710
C     8.93000031  28.32999992  53.76999664
C    10.29000092  28.21000099  53.92000198
C    10.93000031  27.50999832  54.99000168
C    10.11000061  26.88999939  55.91999817
C     8.69999981  27.06000137  55.87999725
C     7.81000042  26.31000137  56.69000244
C     6.44000006  26.38999939  56.58000183
C     5.88000011  27.04000092  55.45000076
C     6.69000053  27.73999977  54.58000183
C     8.10999966  27.70999908  54.73999786
C    12.35000038  27.82999992  55.00999832
C    12.77999973  28.61000061  53.90999603
C    14.06000042  29.11999893  53.83999634
C     4.44999981  26.68000031  55.11000061
H     4.09286642  27.09427452  54.16716766
H     8.52000046  28.95999908  52.97999954
H    10.59000015  26.25999832  56.65999985
H     8.17000008  25.56999969  57.41000366
H     5.88999987  25.59999847  57.09000015
H     6.25000000  28.31000137  53.76999664
H    14.40000057  29.67000008  52.95999908
H     4.46999979  25.59000015  55.06999969
H     3.71000004  26.97000122  55.86999893
S    15.97000027  27.59000015  56.97999954
C    18.46999931  28.47999954  56.07999802
C    17.12000084  28.34000015  55.86000061
C    16.45000076  28.98999977  54.77000427
C    17.22999954  29.56000137  53.77999878
C    18.61999893  29.70000076  53.95999908
C    19.38999939  30.36999893  52.97000122
C    20.66999817  30.76000023  53.26000214
C    21.38000107  30.15000153  54.34000015
C    20.66999817  29.40000153  55.24000168
C    19.27000046  29.14999962  55.12000275
C    15.01999950  28.74000168  54.78000259
C    14.60999966  27.93999863  55.89000320
C    13.30999947  27.46000099  55.96000290
C    22.79999924  30.58000183  54.59999847
H    23.20598984  30.07429123  55.47608566
H    18.90999985  28.05000114  56.97999954
H    16.80999947  29.77999878  52.80000305
H    18.95000076  30.85000038  52.09999847
H    21.21999931  31.47999954  52.65999603
H    21.18999863  29.15999985  56.17000198
H    12.98999977  26.91999817  56.84000015
H    22.80999947  31.64999962  54.85000229
H    23.48999977  30.38999939  53.76999664
