96

S    14.44000053  33.31000137  60.30000305
C    16.95999908  33.90999985  59.16999817
C    15.71000004  33.34000015  59.06000137
C    15.34000015  32.69000244  57.84000015
C    16.20000076  32.70999908  56.76000214
C    17.53000069  33.20000076  56.81999969
C    18.53999901  33.11999893  55.81999969
C    19.82999992  33.50000000  56.11000061
C    20.17000008  34.00000000  57.38999939
C    19.22999954  34.08000183  58.40000153
C    17.87999916  33.72999954  58.11000061
C    13.89999962  32.43999863  57.90999985
C    13.23999977  32.72000122  59.13999939
C    11.85999966  32.59999847  59.29999924
C    21.52000046  34.61000061  57.67000198
H    22.08935356  34.04776382  58.41015625
H    17.39999962  34.15999985  60.13000107
H    15.85000038  32.25000000  55.84999847
H    18.30999947  32.75000000  54.82999802
H    20.61000061  33.50000000  55.34000015
H    19.44000053  34.50999832  59.36999893
H    11.46000004  32.90999985  60.26000214
H    22.04999924  34.63000107  56.70999908
H    21.47000122  35.68000031  57.93000031
S    10.62999916  31.45999908  55.66999817
C     7.95000029  31.27000046  56.44000244
C     9.23999977  31.60000038  56.77999878
C     9.64999962  31.97000122  58.09999847
C     8.64999962  31.97000122  59.06000137
C     7.34000015  31.54000092  58.76999664
C     6.42000008  31.35999870  59.85000229
C     5.26000023  30.63999939  59.64000320
C     4.76999998  30.39999962  58.33000183
C     5.66999960  30.55999947  57.29999924
C     6.96000004  31.14000130  57.43999863
C    11.06999969  32.25000000  58.18999863
C    11.72999954  31.98999786  56.95999908
C    13.10999966  32.04999924  56.83000183
C     3.38999987  29.84000015  58.06999969
H     2.86361861  30.45174026  57.33733368
H     7.73999977  30.79000092  55.47999954
H     8.85000038  32.09000015  60.12000275
H     6.76000023  31.73999977  60.80999756
H     4.74000025  30.43999863  60.56000137
H     5.44000053  30.30999947  56.25999832
H    13.63999939  31.84000015  55.90000153
H     2.86999989  29.84000015  59.03999710
H     3.51000023  28.75999832  57.91999817
S    14.15999985  33.81999969  53.96999741
C    16.81999969  34.27000046  53.15000153
C    15.57999992  33.74000168  52.90000153
C    15.17000008  33.11999893  51.68000031
C    16.13999939  32.93999863  50.70999908
C    17.43000031  33.51000214  50.84000015
C    18.45999908  33.18999863  49.91000366
C    19.77000046  33.46999741  50.20999908
C    20.10000038  34.18999863  51.38999939
C    19.14999962  34.38999939  52.36000061
C    17.77000046  34.10000229  52.11000061
C    13.75000000  32.84000015  51.53999710
C    13.04999924  33.29999924  52.68000031
C    11.65999985  33.34000015  52.68000031
C    21.52000046  34.70999908  51.50000000
H    22.10394669  34.36817551  52.35455704
H    17.06999969  34.73999786  54.09999847
H    15.95999908  32.21999741  49.92000198
H    18.12000084  32.62000275  49.05000305
H    20.48999977  33.13999939  49.47000122
H    19.40999985  34.90000153  53.27999878
H    11.26000023  33.48999786  53.68000031
H    22.11000061  34.68000031  50.58000183
H    21.28999901  35.77999878  51.59000015
S    10.47000027  32.00999832  49.15000153
C     7.86000013  31.68999863  49.94999695
C     9.06999969  32.29000092  50.20000076
C     9.44999981  32.77000046  51.49000168
C     8.47999954  32.90999985  52.47000122
C     7.17000008  32.44999695  52.21000290
C     6.23000050  32.38999939  53.27000046
C     4.94999981  32.00000000  52.95999908
C     4.63999987  31.35999870  51.72999954
C     5.59000015  31.22999954  50.73999786
C     6.86999989  31.78999901  50.96000290
C    10.90000057  32.93999863  51.58000183
C    11.59999943  32.56000137  50.40999985
C    12.98999977  32.52000046  50.40999985
C     3.22000003  30.93000031  51.42000198
H     2.87070608  31.52878952  50.57884598
H     7.77999973  31.24000168  48.95999908
H     8.82000065  33.27999878  53.43999863
H     6.42000008  32.62000275  54.31999969
H     4.21000004  32.04999924  53.75999832
H     5.29999971  30.79000092  49.79000092
H    13.48000050  32.44999695  49.43999863
H     2.70000005  31.04000092  52.37999725
H     3.28999996  29.87999916  51.10000229
