96

S    15.42000008  33.18000031  60.00000000
C    18.02000046  33.77999878  59.15999985
C    16.80999947  33.16999817  58.90999603
C    16.46000099  32.59999847  57.63999939
C    17.50000000  32.38999939  56.75000000
C    18.81000137  32.88000107  56.97000122
C    19.88000107  32.78000259  56.03000259
C    21.09000015  33.36999893  56.27999878
C    21.40000153  34.03000259  57.50000000
C    20.32999992  34.20000076  58.34000015
C    19.02000046  33.65999985  58.15999985
C    15.03999901  32.29000092  57.54000092
C    14.34000015  32.50000000  58.75999832
C    12.96000004  32.47999954  58.88999939
C    22.79999924  34.52000046  57.81999969
H    23.22675896  33.92964935  58.63084030
H    18.18000031  34.26000214  60.12000275
H    17.25000000  31.91999817  55.80999756
H    19.73999977  32.34000015  55.04000092
H    21.80000114  33.15999985  55.48999786
H    20.52000046  34.76000214  59.23999786
H    12.43000031  32.57999802  59.82999802
H    23.45999908  34.47000122  56.95000076
H    22.79999924  35.56000137  58.18999863
S    11.80999947  31.30000114  55.31000137
C     9.23999977  30.62000084  56.30000305
C    10.43000031  31.28999901  56.43000031
C    10.82999992  31.80999947  57.70000076
C     9.84000015  31.84999847  58.67000198
C     8.55000019  31.27000046  58.54999924
C     7.53000021  31.42000008  59.52999878
C     6.25000000  31.00000000  59.23999786
C     5.98000002  30.30999947  58.02999878
C     6.96000004  30.12000084  57.09000015
C     8.30000019  30.51000214  57.36000061
C    12.25000000  32.11000061  57.74000168
C    12.97000027  31.80000114  56.56000137
C    14.34000015  31.93000031  56.38999939
C     4.55999994  29.86999893  57.75000000
H     4.03213406  30.52626610  57.05806732
H     9.00000000  30.36000061  55.27000046
H     9.94000053  32.36000061  59.61999893
H     7.76999998  32.04000092  60.38999939
H     5.47999954  31.28999901  59.94999695
H     6.76000023  29.82999992  56.05999756
H    14.80999947  31.77000046  55.41999817
H     4.00000000  29.65999985  58.68000031
H     4.63000011  28.85999870  57.31999969
S    15.98000050  33.65000153  53.89999771
C    18.68000031  33.93000031  53.00000000
C    17.35999870  33.58000183  52.78999710
C    16.95999908  33.04000092  51.52000046
C    17.84000015  33.13999939  50.45999908
C    19.20999908  33.44000244  50.63000107
C    20.17999840  33.34000015  49.59000015
C    21.51000023  33.52999878  49.84000397
C    21.90999985  34.08000183  51.09000397
C    20.96999931  34.27000046  52.09000015
C    19.63000107  33.81000137  51.95999908
C    15.52999973  32.79000092  51.44000244
C    14.85000038  33.15999985  52.63000107
C    13.48000050  33.15000153  52.84999847
C    23.29999924  34.59999847  51.37000275
H    23.84623528  33.94735718  52.05101776
H    18.88000107  34.47000122  53.92000198
H    17.46000099  33.01000214  49.43999863
H    19.85999870  32.84000015  48.68000031
H    22.21999931  33.27000046  49.06000137
H    21.21000099  34.88999939  52.95000076
H    13.05999947  33.61000061  53.75000000
H    23.81000137  34.71999741  50.40999985
H    23.26000023  35.59999847  51.81999969
S    12.17000008  31.80000114  49.38999939
C     9.50000000  31.57999992  50.24000168
C    10.77999973  32.04000092  50.45000076
C    11.23000050  32.49000168  51.72999954
C    10.27999973  32.83000183  52.68000031
C     8.93000031  32.47000122  52.43999863
C     7.92000008  32.66999817  53.41999817
C     6.63000011  32.20999908  53.23999786
C     6.28999996  31.37000084  52.15000153
C     7.26999998  31.07999992  51.23000336
C     8.53999996  31.70999908  51.27999878
C    12.67000008  32.69000244  51.79999924
C    13.31999969  32.44999695  50.56999969
C    14.70000076  32.52999878  50.34999847
C     4.88999987  30.81999969  51.97999954
H     4.31424284  31.36732483  51.23365021
H     9.23999977  30.89999962  49.43000031
H    10.50000000  33.38000107  53.59000397
H     8.23999977  33.13999939  54.34999847
H     5.92000008  32.45999908  54.02000046
H     6.94000006  30.65000153  50.28999710
H    15.17000008  32.26000214  49.40999985
H     4.28000021  30.71000099  52.88000107
H     5.26000023  29.84999847  51.63000107
