96

S    15.88999939  32.70000076  60.40000153
C    18.38000107  33.40999985  59.43999863
C    17.18000031  32.78000259  59.18000031
C    16.81999969  32.34000015  57.87000275
C    17.81999969  32.38999939  56.93000031
C    19.10000038  32.95999908  57.14000320
C    20.13999939  33.04999924  56.17000198
C    21.37000084  33.59000015  56.46999741
C    21.70999908  34.03000259  57.77000046
C    20.69999886  33.97999954  58.70999908
C    19.40000153  33.45000076  58.46000290
C    15.38000011  32.06999969  57.84999847
C    14.77000046  32.22999954  59.10999680
C    13.40000057  32.14999771  59.31999969
C    23.13999939  34.43000031  58.04000092
H    23.53888512  33.83167267  58.85914230
H    18.53999901  33.81999969  60.43000031
H    17.61000061  31.91999817  55.97000122
H    20.00999832  32.56999969  55.20000076
H    22.13000107  33.56999969  55.70000076
H    20.97999954  34.40000153  59.66999817
H    13.05999947  32.21999741  60.34999847
H    23.72999954  34.31999969  57.11999893
H    23.34000015  35.50000000  58.16999817
S    12.05000019  31.34000015  55.66999817
C     9.40999985  30.93000031  56.59999847
C    10.71000004  31.34000015  56.83000183
C    11.10999966  31.80000114  58.11999893
C    10.14000034  31.97999954  59.09000015
C     8.80999947  31.53000069  58.95000076
C     7.81000042  31.45999908  59.97000122
C     6.54999971  30.97999954  59.71000290
C     6.19999981  30.59000015  58.39000320
C     7.14999962  30.52999878  57.38999939
C     8.46000004  31.01000023  57.65999603
C    12.55000019  32.00000000  58.20999908
C    13.17000008  31.83000183  56.95000076
C    14.55000019  31.78999901  56.76000214
C     4.81999969  30.06999969  58.06000137
H     4.26458645  30.76782608  57.43338013
H     9.06999969  30.55000114  55.63999939
H    10.47999954  32.31999969  60.06999969
H     8.01999950  32.04000092  60.86000061
H     5.68000031  30.90999985  60.35999680
H     6.80000019  30.29999924  56.38999939
H    14.96000099  31.70000076  55.76000214
H     4.34999990  30.06999969  59.05000305
H     4.84000015  29.02000046  57.76000214
S    12.38000011  29.15999985  52.51999664
C     9.77999973  28.36999893  53.27999878
C    11.13000011  28.39999962  53.53000259
C    11.68000031  27.90999985  54.75999832
C    10.80999947  27.36999893  55.68999863
C     9.40999985  27.53999901  55.56999969
C     8.47000027  27.01999855  56.51000214
C     7.11000013  27.10000038  56.36000061
C     6.61000013  27.44999886  55.07999802
C     7.48000050  27.88000107  54.09999847
C     8.89000034  27.96999931  54.29999924
C    13.10999966  28.15999985  54.86999893
C    13.61999989  28.85999870  53.75000000
C    14.94999981  29.27999878  53.64999771
C     5.13999987  27.79999924  54.94999695
H     4.62068796  27.17397881  54.22438431
H     9.44999981  28.69999886  52.29000092
H    11.13000011  26.91999817  56.62000275
H     8.76999950  26.61000061  57.48000336
H     6.51000023  27.01999855  57.25999832
H     7.07999992  28.15999985  53.13000107
H    15.36000061  29.46000099  52.65999603
H     4.57999992  27.86000061  55.89000320
H     5.05999994  28.77000046  54.45000076
S    16.60000038  28.05000114  56.98999786
C    19.18000031  28.81000137  56.11999893
C    17.84000015  28.64000130  55.86999893
C    17.21999931  29.07999992  54.65000153
C    17.97999954  29.76000023  53.72000122
C    19.32999992  30.06999969  54.03999710
C    20.13000107  30.81999969  53.13999939
C    21.42999840  31.14999962  53.43999863
C    22.06000137  30.62999916  54.59999847
C    21.32999802  29.86999893  55.48999786
C    19.96999931  29.56000137  55.21999741
C    15.77000046  28.98999977  54.73999786
C    15.24000072  28.32999992  55.87999725
C    13.94000053  27.86000061  55.94999695
C    23.50000000  31.04000092  54.81999969
H    23.93284035  30.51491547  55.67148972
H    19.61000061  28.32999992  57.00000000
H    17.53999901  30.15000153  52.81000137
H    19.69000053  31.11999893  52.18999863
H    21.94999886  31.91999817  52.85999680
H    21.73999977  29.54000092  56.44000244
H    13.60999966  27.23999977  56.79000092
H    23.52999878  32.11999893  54.98000336
H    24.03000069  30.79999924  53.89999771
