96

S    15.47000027  33.15999985  60.56999969
C    18.02000046  33.67000198  59.34999847
C    16.77000046  33.09999847  59.36000061
C    16.39000130  32.44999695  58.13999939
C    17.35000038  32.22999954  57.16999817
C    18.63999939  32.81999969  57.18999863
C    19.57999992  32.66999817  56.12999725
C    20.85000038  33.18000031  56.24000168
C    21.25000000  33.87000275  57.41000366
C    20.36000061  34.04999924  58.44999695
C    19.01000023  33.59999847  58.34000015
C    14.94999981  32.20000076  58.09999847
C    14.34999943  32.56999969  59.33000183
C    12.97000027  32.69000244  59.45999908
C    22.69000053  34.24000168  57.68000031
H    23.14482307  33.56487274  58.40487289
H    18.30999947  34.20000076  60.26000214
H    17.05999947  31.61999893  56.32999802
H    19.18000031  32.27999878  55.20000076
H    21.56999969  32.95000076  55.45000076
H    20.62999916  34.70000076  59.27000046
H    12.56000042  32.88000107  60.44000244
H    23.23999786  34.43000031  56.73999786
H    22.62000084  35.22999954  58.15000153
S    11.51999950  31.40999985  56.00999832
C     8.92000008  31.14000130  56.86999893
C    10.19000053  31.54000092  57.18000031
C    10.65000057  32.06000137  58.43999863
C     9.61999989  32.29000092  59.31999969
C     8.27999973  31.84999847  59.13999939
C     7.31999969  31.87000084  60.18000031
C     6.07999992  31.30000114  59.99000168
C     5.73999977  30.63999939  58.77999878
C     6.63999987  30.68000031  57.72999573
C     7.96000004  31.15999985  57.91999817
C    12.09000015  32.29999924  58.43999863
C    12.69999981  31.90999985  57.22999954
C    14.07999992  31.86000061  57.05999756
C     4.28999996  30.29999924  58.54999924
H     3.95564866  30.74105835  57.61096954
H     8.67999935  30.84000015  55.84999847
H     9.88000011  32.80999756  60.24000168
H     7.60999966  32.27000046  61.14999771
H     5.22000027  31.40000153  60.63999939
H     6.34000015  30.39999962  56.72000122
H    14.47999954  31.73999977  56.05999756
H     3.63000011  30.63999939  59.36000061
H     4.17000008  29.20999908  58.47999954
S    11.28999901  29.00000000  52.72999573
C     8.65999985  28.52999878  53.73000336
C    10.03000069  28.54000092  53.89999771
C    10.67000008  28.19000053  55.13000107
C     9.89999962  27.63999939  56.12999725
C     8.50000000  27.75000000  56.07999802
C     7.59000015  27.22999954  57.04000092
C     6.21999979  27.25000000  56.86999893
C     5.60999966  27.65000153  55.65999985
C     6.47000027  28.16999817  54.71000290
C     7.88000011  28.22999954  54.86999893
C    12.10999966  28.40999985  55.14999771
C    12.60000038  28.92000008  53.92000198
C    13.89999962  29.41999817  53.81999969
C     4.19999981  27.23999977  55.31000137
H     3.71505880  27.69641495  54.44709015
H     8.15999985  28.90999985  52.84999847
H    10.32999992  27.34999847  57.09000015
H     8.05000019  26.75000000  57.90999985
H     5.51999998  26.80000114  57.56999969
H     6.03999996  28.38000107  53.73000336
H    14.28999996  29.89999962  52.93000031
H     4.40000010  26.18999863  55.06999969
H     3.61999989  27.19000053  56.24000168
S    15.57999992  28.11000061  57.18999863
C    18.19000053  28.54999924  56.26999664
C    16.84000015  28.71000099  56.09000397
C    16.27000046  29.15999985  54.86000061
C    17.12000084  29.70999908  53.92000198
C    18.53000069  29.71999931  54.09999847
C    19.52000046  30.22999954  53.20999908
C    20.86000061  29.97999954  53.39000320
C    21.30000114  29.25000000  54.52000046
C    20.43999863  28.88000107  55.52999878
C    19.04999924  29.04000092  55.26000214
C    14.81999969  29.05999947  54.80999756
C    14.29999924  28.52999878  56.02000427
C    12.98999977  28.09999847  56.19999695
C    22.79000092  29.04999924  54.68000031
H    23.24358940  29.43271637  55.59426880
H    18.63000107  28.00000000  57.09999847
H    16.72999954  30.09000015  52.97999954
H    19.10000038  30.96999931  52.52999878
H    21.55999947  30.45999908  52.70999908
H    20.85000038  28.38999939  56.40999603
H    12.60000038  27.56000137  57.04999924
H    23.16999817  29.68000031  53.87000275
H    23.11000061  28.02000046  54.51000214
