96

S    15.73999977  33.20999908  60.08999634
C    18.37000084  33.15000153  59.29000092
C    17.06999969  32.80999756  58.99000168
C    16.67000008  32.18000031  57.77000046
C    17.60000038  32.02999878  56.76000214
C    18.89999962  32.56999969  56.90999985
C    19.85000038  32.56000137  55.86000061
C    21.11999893  33.04000092  56.06999969
C    21.50000000  33.59999847  57.32999802
C    20.59999847  33.59999847  58.36999893
C    19.27999878  33.09999847  58.20000076
C    15.21999931  32.04000092  57.81999969
C    14.55999947  32.43000031  59.01000214
C    13.17999935  32.47999954  59.09999847
C    22.96999931  33.80000305  57.62000275
H    23.34121895  33.06470108  58.33388519
H    18.68999863  33.54000092  60.25000000
H    17.29999924  31.61999893  55.79999924
H    19.52999878  32.09999847  54.93000031
H    21.86000061  32.81999969  55.31000137
H    20.92000008  34.06999969  59.29999924
H    12.71000004  32.86000061  60.00999832
H    23.39999962  33.79000092  56.60999680
H    23.03999901  34.79000092  58.08000183
S    11.84000015  31.09000015  55.66999817
C     9.15000057  31.02999878  56.60999680
C    10.47000027  31.35999870  56.77000046
C    10.92000008  31.87000084  58.02999878
C    10.03999901  32.21999741  59.05000305
C     8.67999935  31.87999916  58.87000275
C     7.77999973  32.04999924  59.95999908
C     6.48000002  31.63999939  59.92000198
C     6.05000019  31.04000092  58.70999908
C     6.94000006  30.65999985  57.71999741
C     8.21000004  31.28999901  57.64999771
C    12.36999989  32.00000000  58.06000137
C    13.02999973  31.53000069  56.90000153
C    14.40999985  31.59000015  56.76000214
C     4.65000010  30.48000145  58.59000397
H     3.92621899  31.14701462  58.12167358
H     8.78000069  30.45000076  55.76000214
H    10.40999985  32.38999939  60.05000305
H     8.36000061  32.34999847  60.84000015
H     5.88000011  31.80000114  60.81999969
H     6.74000025  29.99000168  56.88999939
H    14.88999939  31.28000069  55.84000015
H     4.28999996  30.10000038  59.54999924
H     4.76999998  29.59000015  57.95999908
S    11.89000034  29.06999969  52.83000183
C     9.39000034  28.32999992  53.76999664
C    10.75000000  28.22999954  53.90999603
C    11.32999992  27.60000038  55.06000137
C    10.47000027  27.11000061  56.03000259
C     9.06000042  27.19000053  55.94999695
C     8.17000008  26.81999969  56.98999786
C     6.80999994  27.01999855  56.88000107
C     6.32000017  27.67000008  55.72000122
C     7.13999987  28.15000153  54.72999954
C     8.52000046  27.84000015  54.79000092
C    12.72999954  27.98999977  55.10000229
C    13.19000053  28.71999931  53.97999573
C    14.50000000  29.14999962  53.80000305
C     4.82999992  27.90999985  55.61000061
H     4.40066481  27.20875359  54.89444351
H     8.92000008  28.85000038  52.94000244
H    10.88000107  26.59000015  56.88999939
H     8.71999931  26.38999939  57.83000183
H     6.12999964  26.86000061  57.70999908
H     6.74000025  28.72999954  53.88999939
H    14.82999992  29.65999985  52.90000153
H     4.32999992  27.63000107  56.53999710
H     4.63999987  28.94000053  55.27999878
S    16.28000069  27.80999947  57.14000320
C    18.85000038  28.45000076  56.23000336
C    17.48999977  28.45999908  56.02000427
C    16.86000061  29.00000000  54.84000397
C    17.67000008  29.70000076  53.96999741
C    19.07999992  29.63999939  54.08000183
C    19.92000008  30.10999870  53.02999878
C    21.25999832  30.22999954  53.29000092
C    21.87999916  29.72999954  54.45999908
C    21.09999847  29.03000069  55.35999680
C    19.69000053  28.98999977  55.21999741
C    15.42000008  28.81000137  54.80999756
C    14.96999931  28.18000031  55.98999786
C    13.67000008  27.69000053  56.10000229
C    23.26000023  30.22000122  54.84000397
H    23.66648483  29.59957123  55.63871384
H    19.22999954  27.98000145  57.12999725
H    17.18000031  30.10000038  53.09000015
H    19.47999954  30.63999939  52.18999863
H    21.90000153  30.93000031  52.75000000
H    21.61000061  28.64999962  56.24000168
H    13.38000107  27.10000038  56.95999908
H    23.21000099  31.27000046  55.15999603
H    23.97999954  30.15000153  54.02000046
