96

S    14.92000008  32.86999893  60.31000137
C    17.59000015  33.34999847  59.52999878
C    16.34000015  32.85000229  59.25000000
C    16.09000015  32.15999985  58.02000046
C    17.09000015  32.04999924  57.06999969
C    18.39999962  32.52000046  57.34000397
C    19.48999977  32.43000031  56.43000031
C    20.71000099  33.00000000  56.73999786
C    20.98999977  33.59000015  58.00000000
C    19.93999863  33.72000122  58.87000275
C    18.63999939  33.20000076  58.57999802
C    14.67000008  31.86000061  57.87000275
C    13.90999985  32.25000000  59.00000000
C    12.51999950  32.22999954  59.06000137
C    22.42000198  33.95000076  58.33000183
H    22.97574615  33.19475555  58.88574600
H    17.73999977  34.01000214  60.38000107
H    16.86000061  31.64999962  56.09000397
H    19.31999969  31.98999786  55.45000076
H    21.45000076  32.97999954  55.94999695
H    20.10999870  34.13999939  59.86000061
H    11.95000076  32.54000092  59.93000031
H    22.92000008  34.11999893  57.36000061
H    22.43999863  34.92000198  58.85000229
S    11.42000008  31.18999863  55.43000031
C     8.71000004  30.85000038  56.13999939
C     9.98000050  31.25000000  56.45999908
C    10.36999893  31.61000061  57.78999710
C     9.38000011  31.73999977  58.75000000
C     8.05999947  31.30000114  58.47999954
C     7.11000013  31.25000000  59.54000092
C     5.91000032  30.62000084  59.34000015
C     5.59999990  30.07999802  58.06000137
C     6.43000031  30.27000046  56.97999954
C     7.73000002  30.81999969  57.15999985
C    11.80999947  31.80000114  57.94000244
C    12.53999901  31.52000046  56.76000214
C    13.93000031  31.54000092  56.72000122
C     4.15999985  29.77000046  57.74000168
H     3.64101982  30.50225830  57.12149048
H     8.50000000  30.42000008  55.15999603
H     9.51000023  32.21999741  59.71000290
H     7.30999994  31.81999969  60.45000076
H     5.17000008  30.72000122  60.12000275
H     6.12999964  30.00999832  55.97000122
H    14.48999977  31.21999931  55.84000015
H     3.54999995  29.69000053  58.64999771
H     4.13000011  28.77000046  57.28000259
S    11.51999950  28.61000061  52.23999786
C     8.89000034  27.92000008  52.97999954
C    10.24000072  27.85000038  53.20000076
C    10.72000027  27.44999886  54.48999786
C     9.84000015  27.01000023  55.45999908
C     8.45000076  27.14999962  55.22999573
C     7.57999992  26.76000214  56.30000305
C     6.23000050  26.77999878  56.07999802
C     5.65999985  27.30999947  54.88999939
C     6.51000023  27.50000000  53.81999969
C     7.92999983  27.53999901  53.95000076
C    12.10000038  27.86000061  54.72000122
C    12.63000011  28.57999992  53.61999893
C    13.94000053  29.05999947  53.59000397
C     4.15999985  27.40999985  54.72000122
H     3.68169808  26.56761742  54.22028351
H     8.52999973  28.35000038  52.04000092
H    10.11000061  26.75000000  56.47999573
H     7.94000053  26.54000092  57.29999924
H     5.71000004  26.50000000  56.98999786
H     6.09000015  27.75000000  52.85999680
H    14.21000004  29.51999855  52.63999939
H     3.70000005  27.55000114  55.70999908
H     4.05000019  28.28000069  54.06000137
S    15.53999996  27.77000046  56.95000076
C    18.19000053  28.31000137  56.11999893
C    16.84000015  28.36000061  55.89000320
C    16.28000069  28.92999840  54.69999695
C    17.12000084  29.53000069  53.77999878
C    18.51000023  29.56000137  54.01000214
C    19.40999985  30.25000000  53.15999985
C    20.76000023  30.34000015  53.40999985
C    21.25999832  29.86999893  54.65999985
C    20.43999863  29.17000008  55.51000214
C    19.04999924  29.00000000  55.22999573
C    14.82999992  28.75999832  54.61999893
C    14.27999973  28.09000015  55.73999786
C    12.96000004  27.63999939  55.79999924
C    22.72000122  30.15999985  54.87999725
H    23.12433815  29.72728920  55.79507828
H    18.61999893  27.86000061  57.01000214
H    16.67000008  30.06000137  52.95000076
H    19.04999924  30.85000038  52.31999969
H    21.25999832  30.98999977  52.70000076
H    20.82999992  28.81000137  56.45000076
H    12.55000019  27.06000137  56.62000275
H    22.80999947  31.25000000  54.81999969
H    23.31999969  29.77999878  54.05000305
