96

S    15.59999943  32.36999893  60.35999680
C    18.20000076  33.04999924  59.51000214
C    16.95000076  32.56000137  59.22000122
C    16.54999924  32.11999893  57.90999985
C    17.54999924  32.07999802  56.95999908
C    18.88000107  32.50999832  57.19999695
C    19.88999939  32.36000061  56.20999908
C    21.14000130  32.90000153  56.39999771
C    21.47999954  33.44000244  57.67000198
C    20.50000000  33.55999756  58.62999725
C    19.19999886  32.99000168  58.50999832
C    15.10000038  32.00000000  57.78999710
C    14.45000076  32.04999924  59.05000305
C    13.07000065  32.09999847  59.20000076
C    22.85000038  34.03000259  57.88000107
H    23.41655731  33.26514816  58.41114426
H    18.53000069  33.47999954  60.45000076
H    17.19000053  31.75000000  55.98999786
H    19.62000084  32.02999878  55.20999908
H    21.84000015  32.86000061  55.56999969
H    20.69000053  33.95000076  59.62999725
H    12.74000072  32.31999969  60.20999908
H    23.18000031  34.34000015  56.88000107
H    22.72999954  34.97000122  58.43000031
S    11.85999966  30.66999817  55.73999786
C     9.22999954  30.19000053  56.69000244
C    10.47999954  30.72000122  56.86999893
C    10.88999939  31.28000069  58.11999893
C     9.94000053  31.40999985  59.12000275
C     8.57999992  31.11000061  58.90999603
C     7.48000050  31.35999870  59.77000427
C     6.19000006  30.95000076  59.54000092
C     5.91000032  30.22999954  58.34999847
C     6.90999985  30.00999832  57.43000031
C     8.26000023  30.38000107  57.70000076
C    12.28999996  31.65999985  58.11999893
C    12.97999954  31.38000107  56.90999985
C    14.29999924  31.76000214  56.66999817
C     4.50000000  29.70999908  58.15999985
H     4.08843756  30.17832947  57.26591873
H     8.84000015  29.84999847  55.72999954
H    10.17000008  31.90999985  60.06000137
H     7.76000023  31.81999969  60.72000122
H     5.42999983  31.28999901  60.24000168
H     6.63999987  29.41999817  56.56000137
H    14.73000050  31.71999931  55.66999817
H     3.98000002  30.02000046  59.06999969
H     4.61000013  28.61999893  58.11000061
S    12.43999958  28.90999985  52.49000168
C     9.86999989  28.11000061  53.34000015
C    11.23000050  28.19999886  53.57999802
C    11.85999966  27.59000015  54.71000290
C    11.05000019  27.06000137  55.68999863
C     9.63999939  27.09000015  55.54000092
C     8.78000069  26.45000076  56.47999573
C     7.44000006  26.25000000  56.25999832
C     6.83000040  26.87000084  55.13999939
C     7.59999990  27.60000038  54.26000214
C     9.02000046  27.60000038  54.34999847
C    13.27999973  27.89999962  54.75000000
C    13.76000023  28.68000031  53.66000366
C    15.05000019  29.18000031  53.67000198
C     5.33999968  26.84999847  54.88999939
H     5.01320696  26.11826706  54.15116501
H     9.44999981  28.52999878  52.43999863
H    11.42000008  26.42999840  56.49000168
H     9.26000023  26.02000046  57.36000061
H     6.80999994  25.81000137  57.02999878
H     7.11999989  27.86999893  53.31999969
H    15.40999985  29.84999847  52.90000153
H     4.88000011  26.63999939  55.86000061
H     4.94000006  27.84000015  54.61999893
S    16.75000000  27.50999832  56.88999939
C    19.29000092  28.32999992  56.07999802
C    17.93000031  28.38999939  55.90000153
C    17.35000038  28.92999840  54.69999695
C    18.20000076  29.44000053  53.73000336
C    19.59000015  29.54999924  53.95999908
C    20.51000214  29.93999863  52.95000076
C    21.86000061  29.80999947  53.18000031
C    22.43000031  29.07999992  54.25000000
C    21.55999947  28.61999893  55.20999908
C    20.15999985  28.87000084  55.10000229
C    15.90000057  28.78000069  54.71000290
C    15.46000004  27.89999962  55.72999954
C    14.13000011  27.50999832  55.79999924
C    23.92000008  28.85999870  54.38999939
H    24.25349236  29.33540535  55.31242752
H    19.71999931  27.79999924  56.93000031
H    17.68000031  29.59000015  52.78999710
H    20.13000107  30.45999908  52.06999969
H    22.56000137  30.10999870  52.39999771
H    21.97000122  28.05999947  56.04000092
H    13.88000011  26.83000183  56.59999847
H    24.48999786  29.17000008  53.50000000
H    24.07999992  27.78000069  54.29999924
