96

S    15.95999908  33.02999878  60.13999939
C    18.59000015  33.36000061  59.25000000
C    17.31999969  32.90000153  59.00000000
C    16.92000008  32.37999725  57.72999573
C    17.94999886  32.16999817  56.83000183
C    19.27000046  32.63999939  57.02000046
C    20.32999992  32.55000305  56.06999969
C    21.60000038  33.04000092  56.25000000
C    21.86000061  33.65000153  57.50999832
C    20.93000031  33.72000122  58.52000427
C    19.63000107  33.20000076  58.29999924
C    15.47000027  32.25000000  57.68000031
C    14.78999996  32.63000107  58.86000061
C    13.42000008  32.52000046  59.06999969
C    23.29000092  33.98999786  57.87000275
H    23.68840218  33.18608093  58.48894882
H    18.78000069  33.91999817  60.17000198
H    17.79000092  31.64999962  55.89000320
H    20.03999901  32.09999847  55.12000275
H    22.43999863  32.84000015  55.59999847
H    21.21999931  34.03000259  59.52999878
H    12.93000031  32.50999832  60.04000092
H    23.97000122  34.13999939  57.02000046
H    23.23999786  34.97000122  58.36999893
S    12.10000038  31.18999863  55.59999847
C     9.38000011  31.07999992  56.46999741
C    10.71000004  31.38999939  56.69000244
C    11.18999958  31.80999947  57.95999908
C    10.27999973  32.02000046  58.97999573
C     8.89999962  31.70000076  58.87000275
C     7.92000008  31.93000031  59.86999893
C     6.61000013  31.52000046  59.72999954
C     6.24000025  30.94000053  58.50000000
C     7.16000032  30.78000069  57.48000336
C     8.50000000  31.25999832  57.56000137
C    12.60000038  32.19000244  57.98999786
C    13.26000023  31.77999878  56.79999924
C    14.63999939  31.84000015  56.63999939
C     4.88000011  30.30999947  58.29999924
H     4.23446512  30.82784653  57.59062195
H     9.06000042  30.58000183  55.56000137
H    10.53999996  32.50999832  59.91000366
H     8.30000019  32.43000031  60.76000214
H     5.98999977  31.54000092  60.61999893
H     6.89000034  30.27000046  56.56000137
H    15.05000019  31.51000023  55.68999863
H     4.42000008  30.20999908  59.29999924
H     4.97000027  29.26000214  57.98999786
S    16.03999901  33.34000015  54.12000275
C    18.68999863  33.47999954  53.18000031
C    17.35999870  33.23999786  52.93000031
C    17.00000000  32.73999786  51.63999939
C    17.94000053  32.50999832  50.65000153
C    19.29000092  32.80999756  50.90000153
C    20.32999992  32.93999863  49.93999863
C    21.61999893  33.40999985  50.11000061
C    21.98999786  33.77000046  51.43000031
C    21.05999947  33.61000061  52.43000031
C    19.70000076  33.25000000  52.21000290
C    15.53999996  32.68000031  51.63000107
C    14.86999989  32.99000168  52.83000183
C    13.48999977  32.97999954  53.02999878
C    23.36000061  34.29999924  51.77999878
H    23.85812950  33.73782730  52.56988907
H    19.06999969  33.87000275  54.12000275
H    17.59000015  32.30999756  49.62999725
H    20.02000046  32.92000198  48.89999771
H    22.19000053  33.74000168  49.25000000
H    21.38999939  33.74000168  53.46000290
H    13.12999916  33.31999969  53.99000168
H    23.94000053  34.20999908  50.84999847
H    23.48999977  35.35000229  52.05999756
S    12.06999969  31.68999863  49.52999878
C     9.48000050  31.30000114  50.54000092
C    10.71000004  31.90999985  50.65999985
C    11.23999977  32.44999695  51.86999893
C    10.36999893  32.68000031  52.90999985
C     9.06000042  32.16999817  52.77999878
C     8.06999969  32.40000153  53.77999878
C     6.78999996  31.93000031  53.68000031
C     6.30999994  31.24000168  52.51999664
C     7.23000002  31.01000023  51.52999878
C     8.57999992  31.47000122  51.62000275
C    12.69999981  32.54000092  51.95999908
C    13.28999996  32.20999908  50.72000122
C    14.67000008  32.33000183  50.59000015
C     4.90000010  30.73999786  52.36999893
H     4.49564552  31.26494980  51.50453949
H     9.27999973  30.81999969  49.59000015
H    10.69000053  33.11999893  53.86000061
H     8.51000023  32.93000031  54.61999893
H     6.19999981  32.04999924  54.58000183
H     6.86999989  30.36000061  50.72999954
H    15.06000042  32.06999969  49.61000061
H     4.33999968  30.86999893  53.29999924
H     4.94999981  29.63999939  52.30999756
