96

S    15.52999973  33.36000061  60.61999893
C    18.12000084  33.72000122  59.64000320
C    16.84000015  33.27000046  59.43000031
C    16.39000130  32.78000259  58.15999985
C    17.20999908  32.88000107  57.04999924
C    18.52000046  33.40999985  57.18000031
C    19.48999977  33.32999802  56.14999771
C    20.78000069  33.75999832  56.38000107
C    21.18000031  34.29999924  57.63000107
C    20.27000046  34.31000137  58.66000366
C    18.96000099  33.77000046  58.50000000
C    14.96000099  32.50000000  58.16999817
C    14.35999966  32.77000046  59.43000031
C    12.97000027  32.86999893  59.52999878
C    22.63000107  34.61999893  57.88999939
H    23.08629990  34.00684738  58.66713333
H    18.45999908  34.13000107  60.59000015
H    16.90000153  32.50000000  56.07999802
H    19.07999992  32.92000198  55.22999573
H    21.47999954  33.43000031  55.61999893
H    20.50000000  34.70999908  59.64000320
H    12.48999977  33.02000046  60.48999786
H    23.22000122  34.54999924  56.97000122
H    22.70000076  35.63000107  58.33000183
S    11.64999962  31.64999962  55.97000122
C     9.04999924  31.38000107  56.81000137
C    10.31000042  31.84999847  57.11000061
C    10.67000008  32.27999878  58.43000031
C     9.77999973  32.15999985  59.47000122
C     8.43999958  31.76000214  59.22999954
C     7.48000050  31.61000061  60.27000046
C     6.23000050  31.14999962  59.93999863
C     5.88000011  30.86999893  58.60000229
C     6.80999994  30.90999985  57.57999802
C     8.10999966  31.42999840  57.87000275
C    12.11999989  32.43999863  58.50000000
C    12.76000023  32.11000061  57.28000259
C    14.14000034  32.14999771  57.09999847
C     4.46999979  30.38000107  58.34999847
H     4.09326172  30.69276428  57.37616730
H     8.76000023  30.86000061  55.90000153
H    10.01000023  32.40000153  60.51000214
H     7.73999977  31.90000153  61.29000092
H     5.46000004  31.19999886  60.70000076
H     6.53999996  30.56999969  56.58000183
H    14.48999977  31.97000122  56.09000397
H     3.94000006  30.69999886  59.25000000
H     4.55000019  29.27999878  58.37999725
S    11.97000027  28.97999954  52.57999802
C     9.34000015  28.45999908  53.53000259
C    10.71000004  28.47999954  53.73000336
C    11.25000000  28.05999947  54.99000168
C    10.42000008  27.52000046  55.94999695
C     9.02000046  27.55000114  55.79000092
C     8.11999989  27.04999924  56.77999878
C     6.76999998  27.00000000  56.51000214
C     6.19999981  27.47999954  55.30000305
C     7.04999971  27.96999931  54.34000015
C     8.46000004  28.01000214  54.54999924
C    12.67000008  28.34000015  55.06999969
C    13.17000008  28.92999840  53.88000107
C    14.40000057  29.56999969  53.77999878
C     4.69999981  27.63000107  55.20999908
H     4.22261810  26.68236351  54.96062088
H     8.90999985  29.04999924  52.72999573
H    10.88000107  27.06000137  56.83000183
H     8.56000042  26.65999985  57.69000244
H     6.23000050  26.78999901  57.43000031
H     6.65999985  28.29000092  53.37999725
H    14.59000015  30.20000076  52.91999817
H     4.26999998  27.95999908  56.17000198
H     4.46999979  28.36000061  54.41999817
S    16.13999939  28.05999947  57.06999969
C    18.63000107  29.10000038  56.27999878
C    17.28999901  28.92999840  56.03000259
C    16.69000053  29.61999893  54.92000198
C    17.53999901  30.20999908  54.01000214
C    18.94000053  30.34000015  54.18000031
C    19.73999977  31.07000160  53.25000000
C    21.09999847  30.94000053  53.39000320
C    21.63999939  30.42000008  54.59000015
C    20.89999962  29.87999916  55.61000061
C    19.50000000  29.71999931  55.34999847
C    15.26999950  29.30999947  54.86000061
C    14.85000038  28.46999931  55.91999817
C    13.55000019  28.02000046  56.11999893
C    23.15000153  30.50000000  54.64000320
H    23.41194534  30.21681595  55.65946198
H    19.02000046  28.69999886  57.21000290
H    17.10000038  30.66999817  53.13000107
H    19.29000092  31.47999954  52.35000229
H    21.76000214  31.40999985  52.65999603
H    21.34000015  29.44999886  56.51000214
H    13.26000023  27.46999931  57.01000214
H    23.54999924  31.47000122  54.34000015
H    23.50000000  29.86000061  53.82999802
