96

S    16.43000031  33.51000214  60.31999969
C    19.06999969  33.93000031  59.54999924
C    17.82999992  33.40999985  59.22999954
C    17.51000023  32.79000092  57.97999954
C    18.55999947  32.44999695  57.15000153
C    19.88999939  32.77000046  57.51999664
C    21.04000092  32.50999832  56.72000122
C    22.29000092  33.01000214  57.00000000
C    22.57999802  33.72000122  58.18999863
C    21.45999908  34.01000214  58.94000244
C    20.12000084  33.61999893  58.64999771
C    16.07999992  32.61000061  57.84000015
C    15.36000061  33.01000214  58.99000168
C    13.97999954  32.88999939  59.08000183
C    23.97000122  34.18999863  58.55999756
H    24.36263466  33.56178284  59.35955048
H    19.20999908  34.64999771  60.34999847
H    18.40999985  31.86000061  56.25000000
H    20.86999893  32.11000061  55.72999954
H    23.11000061  32.86999893  56.29000092
H    21.51000023  34.64999771  59.81999969
H    13.59000015  33.20999908  60.04000092
H    24.56999969  34.15000153  57.64999771
H    23.71000099  35.25000000  58.73000336
S    12.90999985  31.57999992  55.48999786
C    10.21000004  31.24000168  56.24000168
C    11.46999931  31.73000145  56.51000214
C    11.84999943  32.19000244  57.81999969
C    10.82999992  32.40999985  58.73000336
C     9.50000000  32.02999878  58.43000031
C     8.42000008  32.30999756  59.31999969
C     7.13000011  31.88999939  59.06999969
C     6.86999989  31.27000046  57.81999969
C     7.82999992  31.01000023  56.86999893
C     9.17000008  31.38000107  57.18999863
C    13.27999973  32.38999939  57.97000122
C    14.00000000  32.04999924  56.79999924
C    15.39000034  32.14999771  56.70999908
C     5.46999979  30.72000122  57.67000198
H     4.78086519  31.33809090  57.09453964
H     9.92999935  30.73999786  55.31999969
H    11.02000046  32.95000076  59.65000153
H     8.64000034  32.78000259  60.27999878
H     6.30999994  31.91999817  59.78000259
H     7.57999992  30.43999863  55.97999954
H    15.78999996  31.94999886  55.72000122
H     5.14999962  30.43000031  58.67000198
H     5.59000015  29.79999924  57.08000183
S    12.61000061  29.59000015  52.49000168
C     9.96999931  28.77000046  53.13000107
C    11.30000019  28.85999870  53.43999863
C    11.90999985  28.39999962  54.65000153
C    11.05999947  27.79000092  55.56000137
C     9.65999985  27.80999947  55.35999680
C     8.71999931  27.21999931  56.25000000
C     7.36000013  27.39000130  56.04999924
C     6.84999990  27.86000061  54.81999969
C     7.69999981  28.22999954  53.80000305
C     9.10000038  28.21000099  54.09999847
C    13.35999966  28.46999931  54.71000290
C    13.90999985  29.21999931  53.62999725
C    15.22999954  29.63999939  53.60000229
C     5.36000013  28.09000015  54.66999817
H     4.90436316  27.64148331  53.78720474
H     9.63000011  29.04000092  52.12999725
H    11.43000031  27.42000198  56.51000214
H     9.04999924  26.61999893  57.09000015
H     6.61999989  27.13999939  56.79999924
H     7.32999992  28.78999901  52.95999908
H    15.70000076  30.00000000  52.69000244
H     4.80999994  27.79999924  55.56999969
H     5.18000031  29.17000008  54.69999695
S    16.79000092  28.15000153  56.97999954
C    19.44000053  28.69999886  56.18000031
C    18.07999992  28.80000114  55.94999695
C    17.53999901  29.37000084  54.75000000
C    18.46999931  29.96000099  53.90999603
C    19.85999870  30.00000000  54.13000107
C    20.81000137  30.51000214  53.20000076
C    22.17000008  30.52000046  53.43000031
C    22.63000107  30.03999901  54.68000031
C    21.75000000  29.48999786  55.59000015
C    20.35000038  29.38999939  55.34000015
C    16.09000015  29.27999878  54.65000153
C    15.59000015  28.50000000  55.72000122
C    14.23999977  28.15000153  55.75000000
C    24.05999947  30.27000046  55.11000061
H    24.44529915  29.62783623  55.90200424
H    19.77000046  28.13999939  57.04999924
H    18.02999878  30.43000031  53.02999878
H    20.39999962  30.98999977  52.31999969
H    22.86000061  31.01000023  52.74000168
H    22.18000031  29.09000015  56.50000000
H    13.71000099  27.80999947  56.63000107
H    24.23000145  31.28999901  55.47999954
H    24.71999931  30.12000084  54.23999786
