96

S    15.42000008  32.81999969  60.12000275
C    17.89999962  33.61000061  59.15000153
C    16.68000031  33.04000092  58.88999939
C    16.22999954  32.70000076  57.56999969
C    17.11000061  32.79000092  56.51000214
C    18.38000107  33.38000107  56.72999954
C    19.29000092  33.51000214  55.63999939
C    20.59999847  33.82999802  55.90999985
C    21.02000046  34.17000198  57.22999954
C    20.17000008  34.04999924  58.29999924
C    18.81000137  33.70999908  58.06000137
C    14.81999969  32.33000183  57.56999969
C    14.22999954  32.50000000  58.85000229
C    12.86999893  32.37999725  59.09000015
C    22.42000198  34.65999985  57.51999664
H    22.83159637  34.22002029  58.42835236
H    18.29000092  33.80000305  60.14999771
H    16.90000153  32.40999985  55.51000214
H    18.96000099  33.02000046  54.72999954
H    21.35000038  34.00000000  55.13999939
H    20.46999931  34.18000031  59.33000183
H    12.46999931  32.52000046  60.08999634
H    23.00000000  34.38000107  56.63000107
H    22.43999863  35.73999786  57.72999573
S    11.43000031  31.38000107  55.59000015
C     8.80000019  31.18000031  56.43000031
C    10.06999969  31.61999893  56.70000076
C    10.53999996  31.96000099  58.01000214
C     9.63999939  32.11000061  59.05000305
C     8.30000019  31.73000145  58.76999664
C     7.32999992  31.77999878  59.79999924
C     6.03999996  31.31000137  59.64000320
C     5.75999975  30.59999847  58.44999695
C     6.63999987  30.50000000  57.38999939
C     7.86999989  31.19999886  57.50000000
C    11.98999977  32.06000137  58.04000092
C    12.64999962  31.80000114  56.81000137
C    13.99000072  31.96000099  56.51000214
C     4.35999966  30.03000069  58.33000183
H     3.80350494  30.62930107  57.60940933
H     8.52000046  30.55999947  55.58000183
H     9.89000034  32.29000092  60.08999634
H     7.63999987  32.18000031  60.76000214
H     5.28999996  31.52000046  60.38999939
H     6.38999987  30.13000107  56.39999771
H    14.40999985  31.80999947  55.52000046
H     3.88999987  29.92000198  59.31999969
H     4.44000006  29.04999924  57.84000015
S    14.60000038  34.04000092  53.70999908
C    17.28999901  34.18000031  52.88000107
C    16.01000023  33.70999908  52.67000198
C    15.64000034  33.25000000  51.37000275
C    16.62999916  32.93999863  50.45000076
C    17.97000122  33.34000015  50.65999985
C    18.92000008  33.34999847  49.59999847
C    20.19000053  33.84000015  49.79000092
C    20.56999969  34.36999893  51.05999756
C    19.56999969  34.63999939  51.95999908
C    18.29000092  34.01000214  51.88999939
C    14.21000004  33.02999878  51.26999664
C    13.53000069  33.36999893  52.47000122
C    12.15000057  33.22999954  52.58999634
C    21.94000053  34.93999863  51.35000229
H    22.46552086  34.23693848  51.99625015
H    17.46000099  34.80999756  53.74000168
H    16.31000137  32.52999878  49.48999786
H    18.60000038  33.04999924  48.61000061
H    20.90999985  33.94000244  48.99000168
H    19.81999969  35.27000046  52.81999969
H    11.78999996  33.61999893  53.53000259
H    22.55000114  35.02999878  50.44000244
H    21.84000015  35.86000061  51.93000031
S    11.00999928  31.81999969  49.08000183
C     8.34000015  31.59000015  49.77000427
C     9.59000015  32.02999878  50.12000275
C     9.98000050  32.55000305  51.39999771
C     9.02999973  32.43999863  52.39999771
C     7.73999977  31.90999985  52.15000153
C     6.71999979  31.90000153  53.13999939
C     5.46999979  31.38000107  52.85999680
C     5.13000011  30.90999985  51.56000137
C     6.05999994  31.07000160  50.54999924
C     7.36999989  31.54999924  50.80999756
C    11.40999985  32.77000046  51.49000168
C    12.13000107  32.42000198  50.31999969
C    13.50999928  32.52000046  50.17000198
C     3.78999996  30.29000092  51.25000000
H     3.34872389  30.70992470  50.34609604
H     8.11999989  31.05999947  48.85000229
H     9.31999969  32.76000214  53.40000153
H     6.91999960  32.20999908  54.15999985
H     4.72000027  31.18999863  53.61999893
H     5.88000011  30.58000183  49.59999847
H    14.09000015  32.14999771  49.33000183
H     3.07000017  30.45999908  52.05999756
H     3.89999986  29.18999863  51.25999832
