96

S    15.03999901  33.15000153  60.31999969
C    17.68000031  33.55999756  59.56999969
C    16.45000076  33.02000046  59.26000214
C    16.11999893  32.36999893  58.02999878
C    17.14999962  32.26000214  57.11000061
C    18.45000076  32.76000214  57.34000397
C    19.54000092  32.50000000  56.45999908
C    20.79000092  32.95999908  56.79999924
C    21.11999893  33.59000015  58.02999878
C    20.03999901  33.86000061  58.82999802
C    18.70000076  33.43000031  58.59000397
C    14.68999958  32.11000061  57.87000275
C    13.99000072  32.49000168  59.05000305
C    12.61999989  32.33000183  59.18000031
C    22.50000000  34.10000229  58.36999893
H    23.06414986  33.53585434  59.11267853
H    17.73999977  34.11999893  60.50000000
H    17.02999878  31.77000046  56.14999771
H    19.31999969  32.02999878  55.51000214
H    21.50000000  32.95000076  55.97000122
H    20.20000076  34.36999893  59.78000259
H    12.18000031  32.49000168  60.15999603
H    23.01000214  34.11999893  57.39999771
H    22.52000046  35.13999939  58.70999908
S    11.44999981  30.95000076  55.63000107
C     8.76999950  30.76999855  56.38000107
C    10.06000042  31.09999847  56.72000122
C    10.44000053  31.73000145  57.95000076
C     9.47000027  32.00999832  58.89999771
C     8.15999985  31.51000023  58.68000031
C     7.23000002  31.54000092  59.75999832
C     6.05000019  30.85000038  59.58000183
C     5.64000034  30.38999939  58.29999924
C     6.48999977  30.46999931  57.22000122
C     7.81000042  30.96999931  57.39999771
C    11.89000034  31.81999969  58.09999847
C    12.56000042  31.51000023  56.88999939
C    13.94000053  31.61999893  56.79999924
C     4.25000000  29.84999847  58.04000092
H     3.71527553  30.40611267  57.26999664
H     8.47000027  30.29999924  55.44000244
H     9.65999985  32.40000153  59.88999939
H     7.57000017  31.91999817  60.70999908
H     5.42000008  30.65999985  60.44000244
H     6.17999983  30.29000092  56.18999863
H    14.47999954  31.25999832  55.91999817
H     3.75000000  29.84999847  59.02000046
H     4.55000019  28.81000137  57.84999847
S    11.26000023  28.80000114  52.67000198
C     8.71999931  28.19999886  53.68000031
C    10.08999920  28.06999969  53.79000092
C    10.70000076  27.56000137  54.98000336
C     9.84000015  27.21999931  56.00999832
C     8.43000031  27.22999954  55.89000320
C     7.72000027  26.52000046  56.88999939
C     6.35999966  26.40999985  56.68000031
C     5.71000004  26.87999916  55.51000214
C     6.44000006  27.46999931  54.50000000
C     7.83999968  27.63999939  54.64000320
C    12.13000107  27.79999924  54.99000168
C    12.56999969  28.42000008  53.79000092
C    13.86000061  28.95000076  53.72000122
C     4.30999994  26.38000107  55.25000000
H     3.90396571  26.71479988  54.29545975
H     8.30999947  28.78000069  52.85999680
H    10.21999931  26.76000214  56.93000031
H     8.28999996  25.92000008  57.58999634
H     5.75000000  25.72000122  57.25999832
H     5.97000027  27.72999954  53.54999924
H    14.14000034  29.53000069  52.84999847
H     4.25000000  25.29000092  55.22999573
H     3.58999991  26.75000000  56.00000000
S    15.57999992  27.92000008  57.14000320
C    18.15999985  28.48999977  56.22000122
C    16.79999924  28.59000015  56.04000092
C    16.15999985  29.10000038  54.86999893
C    17.01000023  29.61999893  53.89999771
C    18.40999985  29.64999962  54.08000183
C    19.26000023  30.23999977  53.09999847
C    20.55999947  30.52000046  53.44999695
C    21.19999886  29.84000015  54.52000046
C    20.43999863  29.04999924  55.34999847
C    19.02000046  29.05999947  55.25000000
C    14.73999977  28.80000114  54.79999924
C    14.27000046  28.18000031  55.97999954
C    12.96000004  27.72999954  56.11999893
C    22.70999908  29.86000061  54.65000153
H    23.03620911  30.01601219  55.67827606
H    18.55999947  28.22999954  57.19999695
H    16.65999985  30.09000015  52.98999786
H    18.84000015  30.52999878  52.14000320
H    21.18000031  31.04999924  52.74000168
H    20.69999886  28.57000160  56.27999878
H    12.58999920  27.22999954  57.01000214
H    23.18000031  30.55999947  53.95999908
H    23.05999947  28.88999939  54.27999878
