96

S    14.47000027  33.01000214  60.26000214
C    17.13000107  33.34999847  59.38000107
C    15.85000038  32.88000107  59.15999985
C    15.43000031  32.33000183  57.90999985
C    16.34000015  32.27999878  56.86999893
C    17.68000031  32.68000031  57.09000015
C    18.63000107  32.63000107  56.03000259
C    19.95000076  32.97999954  56.19999695
C    20.38000107  33.44000244  57.47000122
C    19.47999954  33.52999878  58.50999832
C    18.11000061  33.20000076  58.36000061
C    13.96999931  32.33000183  57.81000137
C    13.27999973  32.76000214  58.96999741
C    11.89000034  32.79999924  59.05000305
C    21.78999901  33.91999817  57.69000244
H    22.30058098  33.34559631  58.46296310
H    17.32999992  33.81000137  60.34000015
H    16.09000015  31.80999947  55.93000031
H    18.19000053  32.34999847  55.06999969
H    20.65999985  32.93999863  55.38000107
H    19.73999977  33.95000076  59.47999954
H    11.42000008  32.97999954  60.00999832
H    22.46000099  33.87000275  56.81999969
H    21.84000015  34.93000031  58.11000061
S    10.62999916  31.60000038  55.47999954
C     7.97999954  31.40000153  56.30000305
C     9.26999950  31.77000046  56.60999680
C     9.67000008  32.37999725  57.84000015
C     8.67999935  32.55000305  58.79000092
C     7.36999989  32.06000137  58.60000229
C     6.34999990  31.97000122  59.59000015
C     5.09999990  31.47000122  59.33000183
C     4.67000008  31.19999886  58.00000000
C     5.64000034  31.22999954  57.02000046
C     7.00000000  31.50000000  57.31999969
C    11.11999989  32.50999832  57.91999817
C    11.77999973  32.00000000  56.77000046
C    13.17000008  31.88999939  56.75000000
C     3.28999996  30.69999886  57.65999603
H     2.70426345  31.41431236  57.08140564
H     7.77999973  31.00000000  55.31000137
H     9.11999989  32.95000076  59.71000290
H     6.69000053  32.19000244  60.59999847
H     4.40000010  31.17000198  60.10000229
H     5.36000013  30.92000008  56.00999832
H    13.63000011  31.54999924  55.83000183
H     2.86000013  30.45000076  58.63999939
H     3.44000006  29.80999947  57.02999878
S    14.18000031  33.75000000  53.94000244
C    16.88999939  33.68999863  53.27999878
C    15.59000015  33.40999985  52.93000031
C    15.21000004  32.85000229  51.66999817
C    16.20000076  32.50999832  50.77000046
C    17.53000069  32.92000198  51.05999756
C    18.53000069  32.88000107  50.05000305
C    19.78000069  33.41999817  50.22999573
C    20.10999870  34.11999893  51.42000198
C    19.18000031  34.17000198  52.43000031
C    17.86999893  33.62999725  52.25999832
C    13.76999950  32.90999985  51.43000031
C    13.09000015  33.27000046  52.62000275
C    11.71000004  33.23999786  52.70000076
C    21.47999954  34.70000076  51.69000244
H    22.09179306  34.10243607  52.36581802
H    17.07999992  34.29000092  54.16999817
H    16.02000046  32.37999725  49.71000290
H    18.17000008  32.52999878  49.09000015
H    20.59999847  33.31999969  49.52999878
H    19.48999977  34.69000244  53.33000183
H    11.18000031  33.58000183  53.59000397
H    22.04000092  34.99000168  50.79000092
H    21.38000107  35.68000031  52.18000031
S    10.59000015  32.04999924  49.08000183
C     7.85000038  32.04999924  49.79000092
C     9.15999985  32.31999969  50.10000229
C     9.55999947  32.72000122  51.40999603
C     8.61999989  32.92000198  52.39999771
C     7.25000000  32.73999786  52.08000183
C     6.23000050  32.95999908  53.04999924
C     4.90999985  32.72999954  52.77000046
C     4.51000023  32.16999817  51.52000046
C     5.46999979  32.11000061  50.54000092
C     6.84999990  32.31999969  50.76000214
C    11.00999928  32.83000183  51.56000137
C    11.71000004  32.52000046  50.37000275
C    13.09000015  32.57999802  50.25000000
C     3.12999988  31.61000061  51.27999878
H     2.54677510  32.18611526  50.56163788
H     7.62000036  31.68000031  48.79000092
H     8.97999954  33.18999863  53.39000320
H     6.48000002  33.09999847  54.09999847
H     4.23000002  32.80999756  53.61000061
H     5.09000015  31.73999977  49.58000183
H    13.50999928  32.34000015  49.27999878
H     2.64999986  31.61000061  52.27000427
H     3.30000019  30.62000084  50.84000015
