96

S    15.55999947  33.79000092  60.45000076
C    18.15999985  34.10000229  59.58000183
C    16.90000153  33.63999939  59.29999924
C    16.50000000  33.08000183  58.04000092
C    17.46000099  33.02000046  57.04000092
C    18.78999901  33.39999771  57.31999969
C    19.85000038  33.20000076  56.38999939
C    21.12999916  33.65000153  56.59999847
C    21.47000122  34.29999924  57.81000137
C    20.52000046  34.34999847  58.80000305
C    19.15999985  33.97999954  58.57999802
C    15.06000042  32.90000153  57.97999954
C    14.40999985  33.29000092  59.19000244
C    13.02999973  33.23999786  59.34000015
C    22.82999992  34.88999939  58.08000183
H    23.41294098  34.27151489  58.76246643
H    18.30000114  34.61999893  60.52999878
H    17.31999969  32.50000000  56.10000229
H    19.59000015  32.61000061  55.51000214
H    21.80999947  33.48999786  55.76000214
H    20.66999817  34.86999893  59.73999786
H    12.44999981  33.52000046  60.21999741
H    23.36000061  35.05000305  57.12999725
H    22.73999977  35.89999771  58.52000427
S    11.85999966  31.75000000  55.80999756
C     9.21000004  31.44000053  56.63000107
C    10.51000023  31.75000000  56.95999908
C    10.90000057  32.30999756  58.22000122
C     9.92999935  32.27999878  59.20999908
C     8.61999989  31.83000183  58.95000076
C     7.68000031  31.78999901  60.01999664
C     6.42000008  31.27000046  59.85000229
C     6.05000019  30.79000092  58.55999756
C     6.88000011  30.95000076  57.47000122
C     8.19999981  31.45000076  57.62000275
C    12.30000019  32.72000122  58.27000046
C    12.94999981  32.38999939  57.05999756
C    14.32999992  32.38999939  56.90000153
C     4.71000004  30.15999985  58.27000046
H     4.28297758  30.72936249  57.44442368
H     9.00000000  30.96999931  55.68000031
H    10.15999985  32.62000275  60.21999741
H     8.02999973  32.04999924  61.00999832
H     5.78000021  31.05999947  60.70000076
H     6.61000013  30.62000084  56.46999741
H    14.75999928  32.02000046  55.97000122
H     4.03999996  30.22000122  59.13999939
H     4.80999994  29.18000031  57.81000137
S    12.05999947  29.44999886  52.52999878
C     9.47000027  28.54999924  53.15999985
C    10.80000019  28.65999985  53.50000000
C    11.31999969  28.26999855  54.78000259
C    10.44000053  27.78000069  55.72999954
C     9.04999924  27.80999947  55.47999954
C     8.09000015  27.36999893  56.44000244
C     6.72999954  27.39999962  56.18999863
C     6.25000000  27.80999947  54.92000198
C     7.16000032  28.16999817  53.95000076
C     8.56000042  28.18000031  54.18000031
C    12.71999931  28.61000061  54.93999863
C    13.27999973  29.23000145  53.79000092
C    14.52999973  29.84000015  53.81999969
C     4.76000023  27.88999939  54.68999863
H     4.41769505  27.34088516  53.81284332
H     9.15999985  28.85999870  52.15999985
H    10.77000046  27.27000046  56.63000107
H     8.56999969  27.03000069  57.35000229
H     6.00000000  27.22999954  56.97999954
H     6.81999969  28.46999931  52.95999908
H    15.00000000  30.20000076  52.90999985
H     4.26999998  27.39999962  55.52999878
H     4.55000019  28.97000122  54.61000061
S    16.09000015  28.46999931  57.28000259
C    18.67000008  29.23000145  56.51000214
C    17.31999969  29.21999931  56.24000168
C    16.77999878  29.61000061  54.97000122
C    17.68000031  30.10000038  54.03999710
C    19.04999924  30.34000015  54.29000092
C    20.00999832  30.76999855  53.33000183
C    21.34000015  30.73999786  53.70999908
C    21.83000183  30.27000046  54.95999908
C    20.90999985  29.79000092  55.86000061
C    19.52000046  29.86000061  55.56000137
C    15.32999992  29.57999992  54.93999863
C    14.84000015  28.92999840  56.11000061
C    13.57999992  28.36000061  56.02000427
C    23.29999924  29.94999886  55.10000229
H    23.73294067  30.85846710  55.51874542
H    19.12999916  28.72999954  57.36000061
H    17.40999985  30.34000015  53.01000214
H    19.70000076  31.05999947  52.34000397
H    22.11999893  30.97999954  53.00000000
H    21.25999832  29.20999908  56.70999908
H    13.30999947  27.55000114  56.70000076
H    23.77000046  29.68000031  54.15000153
H    23.36999893  29.13000107  55.83000183
