96

S    15.48999977  33.06000137  60.26000214
C    18.02000046  33.44000244  59.29999924
C    16.77999878  32.92000198  59.05000305
C    16.31000137  32.50000000  57.76000214
C    17.18000031  32.50000000  56.68000031
C    18.53000069  32.81999969  56.93000031
C    19.52000046  32.86999893  55.90999985
C    20.81999969  33.25999832  56.14999771
C    21.18999863  33.72999954  57.43000031
C    20.26000023  33.74000168  58.44999695
C    18.95000076  33.25000000  58.23999786
C    14.85000038  32.47000122  57.75000000
C    14.27000046  32.70999908  59.02000046
C    12.88000011  32.70999908  59.06999969
C    22.59000015  34.25000000  57.70000076
H    23.00228691  33.84482193  58.62409592
H    18.22000122  33.86000061  60.27999878
H    16.76000023  32.34000015  55.68999863
H    19.27999878  32.59000015  54.87999725
H    21.53000069  33.20000076  55.33000183
H    20.43000031  34.25000000  59.38999939
H    12.43000031  33.00000000  60.01999664
H    23.22999954  33.79000092  56.93999863
H    22.56999969  35.34000015  57.68000031
S    11.51999950  31.56999969  55.54000092
C     8.88000011  31.19999886  56.47999573
C    10.19000053  31.56999969  56.72000122
C    10.64000034  32.04000092  57.98999786
C     9.71000004  32.21999741  59.00000000
C     8.34999943  31.88999939  58.76999664
C     7.40000010  31.91999817  59.82999802
C     6.11999989  31.45000076  59.61999893
C     5.69000006  30.88999939  58.39000320
C     6.57000017  30.92000008  57.34000397
C     7.90999985  31.35999870  57.50000000
C    12.05999947  32.34999847  57.98999786
C    12.69999981  32.09000015  56.75000000
C    14.09000015  32.13999939  56.62000275
C     4.26000023  30.46999931  58.11000061
H     3.88900399  30.96228409  57.21104813
H     8.63000011  30.86000061  55.47999954
H     9.94999981  32.50999832  60.01999664
H     7.63000011  32.34000015  60.79999924
H     5.35000038  31.54000092  60.38000107
H     6.34999990  30.39999962  56.40999603
H    14.65999985  31.90000153  55.72999954
H     3.68999982  30.72999954  59.01000214
H     4.18000031  29.37999916  57.95999908
S    15.52000046  34.00000000  54.15000153
C    18.15999985  34.38000107  53.27000046
C    16.93000031  33.81000137  53.09000015
C    16.59000015  33.13999939  51.86999893
C    17.59000015  33.01000214  50.91999817
C    18.89000130  33.52000046  51.14999771
C    19.95000076  33.20999908  50.26000214
C    21.21999931  33.69999695  50.50000000
C    21.52000046  34.45000076  51.65999985
C    20.52000046  34.83000183  52.52999878
C    19.22000122  34.26000214  52.34000397
C    15.14999962  32.95000076  51.72000122
C    14.45000076  33.32999802  52.90000153
C    13.07000065  33.43000031  52.90999985
C    22.92000008  34.97999954  51.88000107
H    23.38030815  34.42054749  52.69438934
H    18.29000092  34.77999878  54.27999878
H    17.35000038  32.55000305  49.97000122
H    19.75000000  32.63000107  49.36999893
H    21.98999786  33.40999985  49.79000092
H    20.72999954  35.47999954  53.36999893
H    12.55000019  33.75999832  53.80000305
H    23.44000053  34.90999985  50.90999985
H    22.95000076  36.02999878  52.18000031
S    11.96000004  31.87999916  49.41999817
C     9.25000000  31.75000000  50.27000046
C    10.54999924  32.18000031  50.44000244
C    10.86999989  32.83000183  51.66999817
C     9.90999985  33.04000092  52.63999939
C     8.56999969  32.65000153  52.42000198
C     7.57000017  32.63999939  53.43000031
C     6.30999994  32.13000107  53.23999786
C     5.93999958  31.68999863  51.93999863
C     6.86999989  31.60000038  50.93000031
C     8.19000053  32.06999969  51.16000366
C    12.30999947  33.02000046  51.79999924
C    13.02000046  32.44999695  50.72000122
C    14.40999985  32.52999878  50.61999893
C     4.53000021  31.21000099  51.63999939
H     4.11851645  31.63567162  50.72480392
H     9.04999924  31.04999924  49.45999908
H    10.27999973  33.25000000  53.63999939
H     7.73999977  33.06000137  54.41999817
H     5.58000040  32.19000244  54.03999710
H     6.61999989  31.11000061  49.99000168
H    14.88000011  31.94999886  49.81999969
H     3.91000009  31.47999954  52.50000000
H     4.55999994  30.13000107  51.47999573
