96

S    14.63000107  32.97999954  60.52999878
C    17.13999939  33.32999802  59.45999908
C    15.90999985  32.75000000  59.31000137
C    15.44000053  32.16999817  58.09000015
C    16.44000053  31.90000153  57.16999817
C    17.78000069  32.33000183  57.29999924
C    18.81999969  31.96000099  56.39999771
C    20.12000084  32.36000061  56.62000275
C    20.45000076  33.08000183  57.80000305
C    19.51000023  33.32999802  58.76999664
C    18.13999939  33.04999924  58.48999786
C    13.99000072  32.07999802  58.09999847
C    13.42000008  32.47999954  59.34000015
C    12.05000019  32.59999847  59.58000183
C    21.81999969  33.68999863  57.93000031
H    22.35304070  33.19249725  58.74022293
H    17.53000069  33.61000061  60.44000244
H    16.25000000  31.11000061  56.45000076
H    18.56999969  31.30000114  55.56999969
H    20.86000061  32.31999969  55.83000183
H    19.63999939  33.87000275  59.71000290
H    11.75000000  33.13999939  60.47000122
H    22.39000130  33.51000214  57.01000214
H    21.76000214  34.77999878  58.06000137
S    10.60999966  31.50000000  56.00999832
C     8.03999996  31.18999863  56.97000122
C     9.30000019  31.71999931  57.18999863
C     9.72999954  32.19000244  58.47000122
C     8.73000050  32.42000198  59.40000153
C     7.40999985  31.94000053  59.25000000
C     6.44000006  32.02999878  60.28999710
C     5.19000006  31.48999977  60.07999802
C     4.88000011  30.79999924  58.88000107
C     5.80999947  30.69000053  57.88000107
C     7.09000015  31.28999901  58.01000214
C    11.18000031  32.22999954  58.54999924
C    11.76000023  31.83000183  57.31999969
C    13.12000084  31.61999893  57.09999847
C     3.47000003  30.26000023  58.76999664
H     2.90657473  30.90900993  58.09959412
H     7.78999996  30.81999969  55.97000122
H     9.03999996  32.78000259  60.38000107
H     6.77999973  32.47999954  61.22000122
H     4.40000010  31.77000046  60.77999878
H     5.51999998  30.19000053  56.95999908
H    13.50000000  31.19999886  56.18000031
H     2.89000010  30.15999985  59.68999863
H     3.50000000  29.23000145  58.37999725
S    10.59999943  28.95999908  52.65999603
C     7.99000025  28.52999878  53.60000229
C     9.35000038  28.38000107  53.76999664
C     9.92000008  27.84000015  54.97000122
C     9.06000042  27.37999916  55.93999863
C     7.64999962  27.43999863  55.75000000
C     6.67999983  27.11000061  56.73999786
C     5.32000017  27.13999939  56.52000046
C     4.80999994  27.57999802  55.27000046
C     5.68000031  28.13999939  54.36999893
C     7.09000015  28.01000214  54.55999756
C    11.36000061  28.08000183  55.02999878
C    11.87999916  28.68999863  53.86000061
C    13.22999954  28.97999954  53.76999664
C     3.31999993  27.67000008  55.01999664
H     3.03484344  27.57732391  53.97204590
H     7.57000017  28.95999908  52.69000244
H     9.52999973  27.22999954  56.90000153
H     7.13999987  26.71999931  57.63999939
H     4.63999987  26.68000031  57.22000122
H     5.28999996  28.80000114  53.60000229
H    13.50999928  29.37000084  52.78999710
H     2.82999992  26.91999817  55.65000153
H     3.00000000  28.62999916  55.44000244
S    14.75000000  27.79999924  57.29000092
C    17.35000038  28.22999954  56.51000214
C    16.02000046  28.38999939  56.19999695
C    15.52999973  28.94000053  54.97000122
C    16.47999954  29.40000153  54.06999969
C    17.86000061  29.23000145  54.33000183
C    18.86000061  29.61999893  53.39000320
C    20.20000076  29.47999954  53.67000198
C    20.62000084  28.82999802  54.86000061
C    19.70999908  28.47999954  55.81999969
C    18.31999969  28.64000130  55.56000137
C    14.09999943  28.74000168  54.84000397
C    13.56999969  28.15000153  56.02000427
C    12.25000000  27.70000076  56.04000092
C    22.09000015  28.54000092  55.11000061
H    22.51684189  29.06643677  55.96368408
H    17.63000107  27.90999985  57.50999832
H    16.20000076  29.89999962  53.13999939
H    18.65999985  30.19000053  52.49000168
H    20.97999954  29.79999924  52.97999954
H    20.03999901  27.93000031  56.70000076
H    11.87000084  27.00000000  56.77999878
H    22.60999870  28.82999802  54.19000244
H    22.17000008  27.46000099  55.26000214
