96

S    15.21999931  32.77000046  60.47000122
C    17.89999962  33.02000046  59.65000153
C    16.63999939  32.50999832  59.43999863
C    16.22999954  32.00000000  58.16999817
C    17.17000008  32.00999832  57.15000153
C    18.45000076  32.59000015  57.25999832
C    19.50000000  32.45999908  56.31000137
C    20.69000053  33.11999893  56.47999573
C    20.96999931  33.75000000  57.71999741
C    20.06999969  33.72999954  58.75999832
C    18.81000137  33.08000183  58.56999969
C    14.78999996  31.91999817  58.00000000
C    14.09999943  32.27000046  59.19000244
C    12.74000072  32.45999908  59.36999893
C    22.32999992  34.36999893  57.88999939
H    22.83442688  33.86557007  58.71413803
H    18.26000023  33.59000015  60.51000214
H    17.02000046  31.25999832  56.38000107
H    19.27000046  31.77000046  55.50000000
H    21.37000084  33.08000183  55.63000107
H    20.36000061  34.11999893  59.72999954
H    12.23000050  32.61000061  60.31999969
H    22.89999962  34.18999863  56.97000122
H    22.26000023  35.47000122  57.88999939
S    11.51000023  31.28000069  55.79999924
C     8.88000011  31.02999878  56.58000183
C    10.13000011  31.53000069  56.88000107
C    10.48999977  31.97000122  58.18999863
C     9.50000000  32.11999893  59.15000153
C     8.19000053  31.68999863  58.85000229
C     7.21000004  31.63999939  59.88999939
C     5.89999962  31.27000046  59.71000290
C     5.64000034  30.66999817  58.44999695
C     6.54999971  30.62999916  57.42000198
C     7.86000013  31.17000198  57.55000305
C    11.94000053  32.09999847  58.27999878
C    12.63000011  31.75000000  57.09000015
C    14.00000000  31.68999863  56.86000061
C     4.26999998  30.07999802  58.22000122
H     3.90698433  30.22235870  57.20213318
H     8.78000069  30.35000038  55.73999786
H     9.81000042  32.40999985  60.14999771
H     7.57000017  31.90999985  60.87999725
H     5.12000036  31.24000168  60.47000122
H     6.38000011  30.13000107  56.46999741
H    14.48999977  31.48999977  55.91999817
H     3.60000014  30.59999847  58.92000198
H     4.39000034  29.00000000  58.36000061
S    15.25000000  33.09999847  54.08000183
C    17.93000031  33.18000031  53.18000031
C    16.61000061  32.88000107  52.95999908
C    16.11999893  32.50999832  51.66999817
C    16.98999977  32.50999832  50.59999847
C    18.38000107  32.70000076  50.77999878
C    19.30999947  32.57999802  49.69999695
C    20.63999939  32.88999939  49.81999969
C    20.98999977  33.47999954  51.05999756
C    20.17999840  33.56999969  52.16999817
C    18.81999969  33.15000153  52.06999969
C    14.67000008  32.52999878  51.52000046
C    14.07999992  32.85000229  52.76000214
C    12.71000004  32.83000183  53.02999878
C    22.44999886  33.82999802  51.24000168
H    22.92151833  33.33704758  52.09016037
H    18.26000023  33.46999741  54.16999817
H    16.57999992  32.25000000  49.61999893
H    19.00000000  32.43000031  48.67000198
H    21.21999931  32.75000000  48.90999603
H    20.50000000  33.95000076  53.13999939
H    12.39999962  33.16999817  54.01000214
H    23.02999878  33.61000061  50.34000015
H    22.52000046  34.90999985  51.42000198
S    11.31000042  31.73000145  49.45999908
C     8.73000050  31.31000137  50.52999878
C    10.01999950  31.76000214  50.66999817
C    10.46000004  32.34999847  51.90000153
C     9.55000019  32.45999908  52.94000244
C     8.19000053  32.11999893  52.80000305
C     7.17000008  32.19000244  53.79000092
C     5.89999962  31.67000008  53.66000366
C     5.51999998  31.25999832  52.35000229
C     6.43000031  31.09000015  51.33999634
C     7.76999998  31.52000046  51.56000137
C    11.90000057  32.54000092  51.93000031
C    12.48999977  32.27999878  50.66999817
C    13.85000038  32.31999969  50.40000153
C     4.05999994  30.93000031  52.15999985
H     3.74787307  31.17828369  51.14558792
H     8.47999954  30.76000023  49.62999725
H    10.03000069  32.65000153  53.89999771
H     7.46000004  32.54000092  54.78000259
H     5.21000004  31.51000023  54.47999954
H     6.05999994  30.65999985  50.40999985
H    14.23999977  32.16999817  49.40000153
H     3.54999995  31.35999870  53.02999878
H     3.94000006  29.86000061  52.32999802
