96

S    15.80999947  33.00000000  60.38999939
C    18.45000076  33.29999924  59.47999954
C    17.12000084  33.11999893  59.20000076
C    16.67000008  32.75000000  57.88999939
C    17.60000038  32.52000046  56.88999939
C    18.97999954  32.76000214  57.14000320
C    19.98999977  32.83000183  56.14999771
C    21.31999969  33.06999969  56.42000198
C    21.65999985  33.63999939  57.68000031
C    20.73999786  33.59000015  58.69999695
C    19.42000008  33.13000107  58.46000290
C    15.21999931  32.56000137  57.84000015
C    14.61999989  32.66999817  59.12000275
C    13.23999977  32.72000122  59.27000046
C    23.02000046  34.26000214  57.91999817
H    23.54705238  33.63323593  58.63935852
H    18.70000076  33.81000137  60.40999985
H    17.35999870  32.37999725  55.84000015
H    19.70000076  32.59999847  55.12000275
H    22.10000038  32.93000031  55.68000031
H    20.92000008  34.03000259  59.66999817
H    12.86999893  32.78000259  60.28999710
H    23.59999847  34.29999924  57.00000000
H    22.85000038  35.27000046  58.30999756
S    11.84999943  31.83000183  55.65999985
C     9.26999950  31.38000107  56.60999680
C    10.54999924  31.81999969  56.86000061
C    10.98000050  32.20000076  58.16999817
C    10.01999950  32.30999756  59.15999985
C     8.69000053  31.87000084  58.96999741
C     7.68000031  32.04000092  59.97000122
C     6.35999966  31.83000183  59.65000153
C     5.98000002  31.52000046  58.31999969
C     6.94000006  31.11000061  57.43000031
C     8.30999947  31.44000053  57.65999603
C    12.42000008  32.42000198  58.18000031
C    13.03999996  32.27000046  56.90999985
C    14.40999985  32.34999847  56.72000122
C     4.51999998  31.14999962  58.11000061
H     4.05890322  31.69622040  57.28712082
H     8.93000031  31.21000099  55.59000015
H    10.22999954  32.63000107  60.18000031
H     7.99000025  32.20999908  61.00000000
H     5.66999960  31.73999977  60.47999954
H     6.63999987  30.69000053  56.47999573
H    14.86999989  32.22999954  55.73999786
H     4.11999989  31.51000023  59.06000137
H     4.50000000  30.06000137  58.04999924
S    15.67000008  33.69999695  53.82999802
C    18.35000038  33.81000137  53.04000092
C    17.05000114  33.48999786  52.72999573
C    16.65999985  33.22999954  51.38000107
C    17.64999962  33.15000153  50.40999985
C    18.98999977  33.51000214  50.68000031
C    20.05000114  33.65999985  49.72999954
C    21.27000046  34.15999985  50.11000061
C    21.61000061  34.47999954  51.45000076
C    20.63999939  34.29000092  52.39999771
C    19.31999969  33.94000244  52.01000214
C    15.21000004  33.16999817  51.26999664
C    14.52999973  33.45000076  52.49000168
C    13.15999985  33.46999741  52.70999908
C    22.93000031  35.11000061  51.84999847
H    23.53699684  34.34590149  52.33559418
H    18.45000076  34.15999985  54.06999969
H    17.35000038  32.88999939  49.40000153
H    19.71999931  33.45999908  48.70999908
H    22.06999969  34.22000122  49.36999893
H    20.84000015  34.61999893  53.41999817
H    12.69000053  33.70999908  53.66000366
H    23.34000015  35.54999924  50.93000031
H    22.81999969  35.95000076  52.55000305
S    11.80999947  32.13000107  49.23999786
C     9.32999992  31.53000069  50.40000153
C    10.57000065  32.11999893  50.51000214
C    11.00999928  32.79000092  51.70000076
C    10.03999901  33.06000137  52.64999771
C     8.69999981  32.62000275  52.51999664
C     7.71000004  32.93999863  53.50000000
C     6.42000008  32.47999954  53.41999817
C     6.09000015  31.67000008  52.29000092
C     7.00999975  31.32999802  51.32999802
C     8.34000015  31.84000015  51.37000275
C    12.43000031  33.08000183  51.58000183
C    13.04999924  32.78000259  50.34000015
C    14.42000008  32.90000153  50.14999771
C     4.74000025  30.98999977  52.30999756
H     4.12230349  31.50119591  51.57160187
H     9.13999939  30.84000015  49.58000183
H    10.47000027  33.48999786  53.54999924
H     8.07999992  33.36999893  54.41999817
H     5.86000013  32.68000031  54.31999969
H     6.69000053  30.72000122  50.47999954
H    14.85999966  32.55000305  49.22000122
H     4.28000021  30.93000031  53.29999924
H     4.78999996  29.93000031  52.02999878
