96

S    15.06000042  32.78000259  60.31000137
C    17.61000061  33.25999832  59.34000015
C    16.36999893  32.72000122  59.10999680
C    15.85000038  32.33000183  57.84000015
C    16.72999954  32.45999908  56.77999878
C    18.11000061  32.65000153  57.02000046
C    19.05999947  32.54000092  55.97000122
C    20.38000107  32.88000107  56.14999771
C    20.79000092  33.43000031  57.38999939
C    19.90999985  33.55999756  58.44999695
C    18.55999947  33.15999985  58.29000092
C    14.40000057  32.18000031  57.78999710
C    13.82999992  32.49000168  59.05000305
C    12.46000099  32.54000092  59.23999786
C    22.21999931  33.88000107  57.57999802
H    22.62545586  33.41052628  58.47626877
H    17.87999916  33.61999893  60.33000183
H    16.39000130  32.34999847  55.75000000
H    18.67000008  32.21999741  55.00999832
H    21.05999947  32.62000275  55.34000015
H    20.26000023  34.05999756  59.34999847
H    12.18999958  32.73999786  60.27999878
H    22.78000069  33.67000198  56.65999985
H    22.13000107  34.97000122  57.67000198
S    10.93000031  31.45999908  55.72999954
C     8.42000008  31.02999878  56.81000137
C     9.65999985  31.60000038  56.95999908
C    10.11999989  32.13999939  58.20000076
C     9.26000023  32.15999985  59.27999878
C     7.92000008  31.73000145  59.13999939
C     6.98999977  31.77999878  60.21999741
C     5.68000031  31.40999985  60.06999969
C     5.26000023  30.88000107  58.81999969
C     6.17999983  30.65000153  57.81999969
C     7.50000000  31.18000031  57.88000107
C    11.57999992  32.16999817  58.22000122
C    12.15000057  31.84999847  56.95999908
C    13.52000046  31.94000053  56.72999954
C     3.81000018  30.52000046  58.57999802
H     3.38910508  30.89095879  57.64547348
H     8.14000034  30.52000046  55.89000320
H     9.67000008  32.59000015  60.20000076
H     7.34000015  32.18000031  61.17000198
H     5.01999950  31.45999908  60.93000031
H     5.82999992  30.29999924  56.84999847
H    13.93000031  31.81999969  55.72999954
H     3.23000002  30.92000008  59.41999817
H     3.81999993  29.41999817  58.63999939
S    14.68000031  33.36000061  53.99000168
C    17.32999992  33.58000183  53.11000061
C    16.06999969  33.04000092  52.93000031
C    15.57999992  32.34999847  51.77999878
C    16.53000069  32.20999908  50.79000092
C    17.86000061  32.65999985  50.93000031
C    18.79999924  32.61000061  49.86000061
C    20.07999802  33.09999847  50.02999878
C    20.55999947  33.68999863  51.23000336
C    19.63999939  33.84000015  52.23999786
C    18.31999969  33.34000015  52.11999893
C    14.14000034  32.36000061  51.56999969
C    13.52000046  32.83000183  52.76000214
C    12.13999939  32.99000168  52.78999710
C    21.97000122  34.22000122  51.33999634
H    22.64783859  33.69199753  52.01070404
H    17.47999954  34.40000153  53.80000305
H    16.26000023  31.81999969  49.80999756
H    18.48999977  32.27999878  48.88000107
H    20.76999855  32.90999985  49.22000122
H    19.98999977  34.50000000  53.04000092
H    11.71000004  33.34999847  53.72000122
H    22.47999954  34.31999969  50.37000275
H    21.76000214  35.28000259  51.56000137
S    10.88999939  31.84000015  49.22000122
C     8.19999981  31.90000153  49.93999863
C     9.51000023  32.14999771  50.28999710
C     9.90999985  32.57999802  51.59000015
C     8.97999954  32.88000107  52.56999969
C     7.65999985  32.45999908  52.29999924
C     6.70000029  32.50000000  53.34999847
C     5.42000008  32.02999878  53.15000153
C     4.99000025  31.73000145  51.83000183
C     5.89999962  31.61999893  50.79999924
C     7.26000023  32.00999832  50.98999786
C    11.36000061  32.61000061  51.69000244
C    12.03999996  32.21999741  50.51000214
C    13.43000031  32.13999939  50.38000107
C     3.58000016  31.21000099  51.66999817
H     3.03266335  31.54408836  50.78857422
H     7.96000004  31.31000137  49.06000137
H     9.44999981  33.02000046  53.54000092
H     6.94999981  32.80999756  54.36000061
H     4.78999996  31.87999916  54.02000046
H     5.65000010  31.02000046  49.93000031
H    13.89000034  32.04000092  49.40999985
H     2.94000006  31.47000122  52.51999664
H     3.67000008  30.13000107  51.84000015
