96

S    16.20000076  33.04000092  60.77000046
C    18.86000061  33.02999878  59.94999695
C    17.56000137  32.66999817  59.68999863
C    17.17000008  32.25000000  58.37999725
C    18.18000031  31.98999786  57.47000122
C    19.54000092  32.30999756  57.70999908
C    20.48000145  32.34999847  56.63999939
C    21.67000008  33.02999878  56.83000183
C    22.01999855  33.54000092  58.11000061
C    21.18000031  33.43000031  59.19000244
C    19.88000107  32.86999893  58.97999573
C    15.72000027  32.20000076  58.27999878
C    15.06999969  32.61000061  59.47000122
C    13.68999958  32.69000244  59.61000061
C    23.40999985  34.10000229  58.31999969
H    23.94985962  33.48200226  59.03744507
H    19.02000046  33.54000092  60.90000153
H    17.92000008  31.40000153  56.59000015
H    20.19000053  32.04999924  55.63999939
H    22.43000031  32.99000168  56.05999756
H    21.53000069  33.94000244  60.08999634
H    13.22000027  32.95000076  60.56000137
H    23.98999977  34.08000183  57.38999939
H    23.21000099  35.15000153  58.57999802
S    12.41000080  31.67000008  56.00000000
C     9.76000023  31.31000137  56.81000137
C    11.00999928  31.80999947  57.06999969
C    11.46000004  32.23999786  58.36000061
C    10.46000004  32.34000015  59.31000137
C     9.13999939  31.90999985  59.03999710
C     8.13000011  32.13000107  60.02999878
C     6.83000040  31.76000214  59.81999969
C     6.48000002  31.12999916  58.59000397
C     7.40000010  30.89999962  57.60000229
C     8.76999950  31.22999954  57.81999969
C    12.89999962  32.36999893  58.50000000
C    13.56999969  31.93000031  57.31999969
C    14.93999958  31.71999931  57.22000122
C     5.05000019  30.65999985  58.40999985
H     4.49206924  31.34668350  57.77338409
H     9.57999992  30.97999954  55.79000092
H    10.71000004  32.56999969  60.34000015
H     8.47000027  32.56000137  60.97000122
H     6.11999989  31.78999901  60.63999939
H     7.23000002  30.59000015  56.56999969
H    15.34999943  31.28000069  56.31999969
H     4.48000002  30.63999939  59.34999847
H     5.03999996  29.64999962  57.98999786
S    16.55999947  33.45999908  54.47999954
C    19.19999886  33.55999756  53.63999939
C    17.90999985  33.18000031  53.36000061
C    17.52000046  32.78000259  52.04999924
C    18.43000031  32.72999954  51.00999832
C    19.75000000  33.18000031  51.25999832
C    20.72999954  33.18000031  50.22999573
C    22.04000092  33.52999878  50.47999954
C    22.43000031  33.95000076  51.77999878
C    21.52000046  33.90999985  52.81000137
C    20.15999985  33.54999924  52.58999634
C    16.05999947  32.72000122  51.97999954
C    15.40999985  33.13999939  53.16999817
C    14.04000092  33.31999969  53.29999924
C    23.85999870  34.36000061  52.04000092
H    24.35432053  33.81624985  52.84503555
H    19.50000000  33.80000305  54.65000153
H    18.13999939  32.34999847  50.04000092
H    20.36000061  32.66999817  49.34000015
H    22.76000023  33.38999939  49.68999863
H    21.88999939  34.11000061  53.81000137
H    13.63000011  33.59999847  54.27000046
H    24.54000092  34.22000122  51.18999863
H    23.92000008  35.38999939  52.41000366
S    12.77999973  32.21999741  49.62999725
C    10.07999992  32.00999832  50.51000214
C    11.36999989  32.47999954  50.66999817
C    11.82999992  32.90999985  51.95999908
C    10.88000107  33.01000214  52.95999908
C     9.55000019  32.56000137  52.81000137
C     8.57999992  32.59000015  53.85000229
C     7.26999998  32.25000000  53.63999939
C     6.84000015  31.81999969  52.36000061
C     7.76000023  31.63000107  51.35000229
C     9.10000038  32.06000137  51.52999878
C    13.27000046  33.01000214  52.16999817
C    13.89000034  32.59999847  50.96000290
C    15.26000023  32.42000198  50.86999893
C     5.40999985  31.35999870  52.18000031
H     4.99752760  31.72980118  51.24127197
H     9.94000053  31.63000107  49.50000000
H    11.13000011  33.23999786  53.99000168
H     8.86999989  32.97999954  54.81999969
H     6.61999989  32.22999954  54.51000214
H     7.44999981  31.25000000  50.38000107
H    15.70000076  32.20000076  49.89999771
H     4.82999992  31.71999931  53.04000092
H     5.47999954  30.27000046  52.11999893
