96

S    14.94999981  32.34000015  60.30000305
C    17.46999931  33.06000137  59.40999985
C    16.26000023  32.47999954  59.10999680
C    15.80999947  32.15999985  57.78999710
C    16.79000092  32.27000046  56.81000137
C    18.09000015  32.73999786  57.09000015
C    19.04000092  32.86000061  56.04000092
C    20.30999947  33.34000015  56.26999664
C    20.68000031  33.74000168  57.57999802
C    19.77000046  33.70999908  58.61000061
C    18.48999977  33.11999893  58.41999817
C    14.37999916  31.93000031  57.75000000
C    13.76999950  31.97000122  59.02999878
C    12.39999962  31.86000061  59.25000000
C    22.10000038  34.22000122  57.81999969
H    22.60594749  33.72117996  58.64661407
H    17.63000107  33.56999969  60.34999847
H    16.50000000  31.94999886  55.80999756
H    18.72999954  32.56000137  55.04000092
H    21.02000046  33.45999908  55.45000076
H    19.98999977  34.20000076  59.54999924
H    11.92999935  31.81999969  60.22999573
H    22.65000153  33.81999969  56.95999908
H    22.13999939  35.30999756  57.74000168
S    11.02000046  31.14999962  55.56999969
C     8.39999962  30.65000153  56.42000198
C     9.68000031  31.05999947  56.72000122
C    10.14000034  31.38000107  58.04000092
C     9.21000004  31.31999969  59.06999969
C     7.88999987  30.90999985  58.79000092
C     6.96000004  30.78000069  59.86000061
C     5.66999960  30.32999992  59.71000290
C     5.22000027  30.10000038  58.39000320
C     6.05999994  30.22999954  57.30999756
C     7.44000006  30.56999969  57.45999908
C    11.56999969  31.64999962  58.13999939
C    12.18000031  31.47999954  56.88000107
C    13.55000019  31.56999969  56.68000031
C     3.84999990  29.48999786  58.18000031
H     3.38035560  30.00233841  57.34033203
H     8.07999992  30.59999847  55.38999939
H     9.48000050  31.61000061  60.07999802
H     7.34000015  31.21000099  60.79000092
H     5.05000019  30.13999939  60.58000183
H     5.80999947  29.94999886  56.29000092
H    13.92000008  31.54999924  55.65000153
H     3.25999999  29.60000038  59.09999847
H     3.96000004  28.39999962  58.08000183
S    14.88999939  33.47999954  54.08000183
C    17.56999969  33.91999817  53.22000122
C    16.31999969  33.38000107  53.04000092
C    15.95000076  32.86999893  51.75000000
C    16.93000031  32.69000244  50.79000092
C    18.25000000  33.18999863  50.90999985
C    19.27000046  33.09000015  49.91000366
C    20.55999947  33.40999985  50.27000046
C    20.82999992  34.17000198  51.44000244
C    19.79999924  34.41999817  52.31999969
C    18.51000023  33.84000015  52.15999985
C    14.51000023  32.70999908  51.59000015
C    13.78999901  33.00000000  52.77000046
C    12.39999962  32.95000076  52.81999969
C    22.19000053  34.79000092  51.63999939
H    22.65847778  34.33572006  52.51307297
H    17.71999931  34.52000046  54.10999680
H    16.68000031  32.19000244  49.86000061
H    19.07999992  32.50999832  49.02000046
H    21.34000015  33.06000137  49.61000061
H    20.12000084  34.93000031  53.22000122
H    11.82999992  33.22000122  53.69999695
H    22.69000053  34.75000000  50.65999985
H    22.03000069  35.86000061  51.81999969
S    11.36000061  31.57999992  49.27000046
C     8.69000053  31.40000153  50.00000000
C     9.94000053  31.88999939  50.30000305
C    10.25000000  32.50000000  51.56000137
C     9.22000027  32.59000015  52.47000122
C     7.90999985  32.11000061  52.22999954
C     6.84999990  32.21999741  53.18000031
C     5.68000031  31.55999947  52.90999985
C     5.40000010  30.96999931  51.63999939
C     6.34000015  31.02000046  50.63999939
C     7.64999962  31.50000000  50.94999695
C    11.69999981  32.55000305  51.68000031
C    12.44999981  32.13999939  50.54999924
C    13.83999920  32.20999908  50.45999908
C     4.02999973  30.39999962  51.37000275
H     3.48910499  31.08323479  50.71523285
H     8.56000042  30.90999985  49.03999710
H     9.42000008  32.97999954  53.47000122
H     7.02000046  32.72999954  54.12000275
H     4.98000002  31.50000000  53.73000336
H     6.30999994  30.65999985  49.61000061
H    14.35999966  31.63999939  49.69999695
H     3.49000001  30.35000038  52.32999802
H     4.13999987  29.37000084  51.02000427
