96

S    15.54999924  33.18000031  60.34000015
C    18.26000023  33.43000031  59.47000122
C    16.94000053  33.08000183  59.25000000
C    16.54000092  32.47000122  58.01000214
C    17.47999954  32.30999756  57.01000214
C    18.81000137  32.78000259  57.12999725
C    19.70000076  32.90000153  56.03000259
C    20.95000076  33.45000076  56.17000198
C    21.40000153  33.79000092  57.47000122
C    20.52000046  33.81000137  58.53000259
C    19.19000053  33.31999969  58.40999985
C    15.11000061  32.26000214  57.93000031
C    14.40000057  32.80999756  59.02999878
C    13.02000046  32.90000153  59.15000153
C    22.76000023  34.43999863  57.62000275
H    23.32473373  33.86811829  58.35629654
H    18.59000015  33.75999832  60.45000076
H    17.14999962  32.00000000  56.02000427
H    19.34000015  32.65000153  55.02999878
H    21.59000015  33.52999878  55.30000305
H    20.72999954  34.38999939  59.41999817
H    12.56000042  33.41999817  59.98000336
H    23.31999969  34.31000137  56.69000244
H    22.65999985  35.52000046  57.81000137
S    11.84000015  31.37000084  55.65999985
C     9.22999954  31.01000023  56.65999985
C    10.47999954  31.57999992  56.77000046
C    10.84000015  32.26000214  57.97000122
C     9.94000053  32.45999908  59.00000000
C     8.71000004  31.75000000  58.94000244
C     7.86000013  31.73999977  60.07999802
C     6.61000013  31.18000031  60.04000092
C     6.23000050  30.45000076  58.88999939
C     7.11999989  30.27000046  57.85999680
C     8.34000015  31.00000000  57.76000214
C    12.28000069  32.44999695  58.04000092
C    12.96000004  31.96000099  56.90000153
C    14.34999943  31.88999939  56.81000137
C     4.78999996  30.05000114  58.61000061
H     4.36692667  30.68102455  57.82838821
H     8.97000027  30.45999908  55.76000214
H    10.31999969  32.86999893  59.93000031
H     8.09000015  32.30999756  60.97999954
H     5.91000032  31.35000038  60.86000061
H     6.80000019  29.70000076  56.98999786
H    14.88000011  31.42000008  55.98999786
H     4.35999966  30.17999840  59.61000061
H     4.82999992  28.97000122  58.43000031
S    12.13000107  29.37000084  52.74000168
C     9.56999969  28.64000130  53.61999893
C    10.93000031  28.57999992  53.77999878
C    11.51000023  27.95999908  54.93999863
C    10.67000008  27.32000160  55.83000183
C     9.26000023  27.39000130  55.72999954
C     8.43000031  26.83000183  56.72999954
C     7.05999947  26.94000053  56.65000153
C     6.50000000  27.60000038  55.52999878
C     7.28999996  28.26999855  54.61999893
C     8.69999981  28.15000153  54.64000320
C    12.89999962  28.38000107  55.08999634
C    13.40000057  29.03000069  53.94000244
C    14.70000076  29.47000122  53.70999908
C     5.00000000  27.50000000  55.34000015
H     4.67267227  26.51801491  54.99843979
H     9.13000011  29.13000107  52.76000214
H    11.09000015  27.06999969  56.79999924
H     8.85999966  26.35000038  57.61000061
H     6.35999966  26.52000046  57.36999893
H     6.81999969  28.69999886  53.74000168
H    14.96000099  30.07999802  52.84999847
H     4.44000006  27.65999985  56.26999664
H     4.72000027  28.26999855  54.61999893
S    16.46000099  28.16999817  57.02000046
C    19.02000046  28.78999901  56.00999832
C    17.64999962  28.78999901  55.86000061
C    17.02000046  29.41999817  54.75000000
C    17.79000092  30.02000046  53.76999664
C    19.19999886  29.94999886  53.85000229
C    20.00000000  30.48000145  52.80000305
C    21.37000084  30.36999893  52.88999939
C    22.00000000  29.69000053  53.95999908
C    21.25999832  29.37000084  55.06999969
C    19.84000015  29.36000061  55.00000000
C    15.57999992  29.15999985  54.75000000
C    15.11000061  28.52999878  55.91999817
C    13.81000042  28.08000183  56.11000061
C    23.51000023  29.64999962  54.09000015
H    23.90215683  29.95659447  55.05969620
H    19.47000122  28.43000031  56.93999863
H    17.27000046  30.38999939  52.88999939
H    19.51000023  31.12999916  52.08000183
H    21.96000099  30.89999962  52.14000320
H    21.71999931  29.13000107  56.02000427
H    13.48999977  27.56999969  57.01000214
H    23.88999939  30.38000107  53.36999893
H    23.82999802  28.64999962  53.76999664
