96

S    15.21999931  33.36000061  60.37000275
C    17.82999992  34.03000259  59.54000092
C    16.55999947  33.61000061  59.22999954
C    16.27000046  33.06000137  57.94000244
C    17.27000046  32.76000214  57.02999878
C    18.60000038  33.11999893  57.36000061
C    19.63999939  32.83000183  56.43000031
C    20.95000076  32.93999863  56.81000137
C    21.28999901  33.50000000  58.06999969
C    20.26000023  33.84999847  58.90999603
C    18.86999893  33.72000122  58.62999725
C    14.85000038  32.81999969  57.75000000
C    14.17000008  33.02000046  58.97999573
C    12.79999924  32.92000198  59.15000153
C    22.76000023  33.77000046  58.30999756
H    23.11623955  33.34963608  59.25046921
H    17.95999908  34.29999924  60.59000015
H    17.05999947  32.09999847  56.18999863
H    19.31999969  32.40999985  55.47999954
H    21.68999863  32.65999985  56.05999756
H    20.45999908  34.24000168  59.91000366
H    12.38000011  32.95000076  60.14999771
H    23.25000000  33.27000046  57.47000122
H    22.88000107  34.86000061  58.18000031
S    11.57999992  31.47999954  55.65999985
C     8.90999985  31.24000168  56.45999908
C    10.19000053  31.64999962  56.76000214
C    10.65999985  32.09999847  58.04000092
C     9.72999954  32.04999924  59.06999969
C     8.38000011  31.73000145  58.76999664
C     7.40000010  31.67000008  59.79999924
C     6.10000038  31.30000114  59.54999924
C     5.65000010  30.98999977  58.23999786
C     6.56000042  31.01000023  57.21000290
C     7.90999985  31.38999939  57.45999908
C    12.05000019  32.50999832  58.02999878
C    12.72999954  32.13000107  56.84999847
C    14.09000015  32.31999969  56.68000031
C     4.25000000  30.46999931  57.97999954
H     3.83623147  30.79102707  57.02405167
H     8.71000004  30.62999916  55.59000015
H    10.11000061  32.29000092  60.06000137
H     7.85000038  31.55999947  60.77999878
H     5.55000019  31.01000023  60.44000244
H     6.28000021  30.76000023  56.18999863
H    14.65999985  32.07999802  55.79000092
H     3.55999994  30.65999985  58.81999969
H     4.32000017  29.38999939  58.13000107
S    11.92999935  29.34999847  52.58999634
C     9.28999996  28.69999886  53.40000153
C    10.65000057  28.64000130  53.59000397
C    11.21999931  28.09000015  54.79000092
C    10.38000011  27.50000000  55.72000122
C     8.97000027  27.60999870  55.63000107
C     8.07999992  27.04000092  56.58000183
C     6.72999954  27.03000069  56.36000061
C     6.17000008  27.62000084  55.20000076
C     7.03000021  28.19000053  54.29000092
C     8.45000076  28.22000122  54.43999863
C    12.61000061  28.43000031  55.01999664
C    13.14000034  29.04000092  53.85000229
C    14.45000076  29.48999786  53.88999939
C     4.67000008  27.59000015  55.01999664
H     4.30742455  26.81508446  54.34461212
H     8.85000038  29.34000015  52.63999939
H    10.98000050  27.00000000  56.47999573
H     8.52999973  26.54999924  57.43999863
H     6.02999973  26.65999985  57.11000061
H     6.63999987  28.57000160  53.36000061
H    14.92000008  29.96000099  53.02999878
H     4.19999981  27.39999962  56.00000000
H     4.40000010  28.59000015  54.66999817
S    15.95999908  28.38999939  57.41000366
C    18.55999947  28.88999939  56.62000275
C    17.21999931  29.02000046  56.33999634
C    16.70999908  29.56999969  55.12000275
C    17.60000038  30.03999901  54.16999817
C    18.97999954  30.09000015  54.50000000
C    19.93000031  30.51000214  53.52000427
C    21.28000069  30.34000015  53.67000198
C    21.77000046  29.67000008  54.82999802
C    20.88000107  29.23000145  55.79000092
C    19.47999954  29.44999886  55.68999863
C    15.27999973  29.34999847  55.00999832
C    14.75000000  28.65999985  56.13999939
C    13.45000076  28.18000031  56.11000061
C    23.25000000  29.44999886  55.02999878
H    23.62839127  29.93548203  55.92956924
H    18.97999954  28.43000031  57.50999832
H    17.26000023  30.22000122  53.15999985
H    19.55999947  30.93000031  52.58999634
H    21.96000099  30.69000053  52.90000153
H    21.19999886  28.67000198  56.65999985
H    13.01000023  27.52000046  56.84999847
H    23.95000076  29.59000015  54.19000244
H    23.34000015  28.38999939  55.27000046
