96

S    15.53999996  33.13000107  60.40999985
C    18.02999878  33.63999939  59.43000031
C    16.81999969  33.04000092  59.19000244
C    16.40999985  32.47000122  57.94000244
C    17.38999939  32.33000183  56.95999908
C    18.64999962  32.93999863  57.16999817
C    19.73999977  32.70999908  56.29000092
C    20.95999908  33.32999802  56.45000076
C    21.21000099  34.11000061  57.60000229
C    20.29000092  34.11999893  58.61999893
C    18.96999931  33.67000198  58.36999893
C    14.96999931  32.27000046  57.95999908
C    14.35999966  32.57999802  59.20000076
C    12.98999977  32.43999863  59.36000061
C    22.65999985  34.45000076  57.88999939
H    23.10257912  33.99314499  58.77515793
H    18.32999992  33.98999786  60.41999817
H    17.21999931  31.73000145  56.07999802
H    19.56999969  32.00999832  55.47000122
H    21.78999901  33.01000214  55.80999756
H    20.59000015  34.43999863  59.61999893
H    12.53999901  32.97999954  60.19000244
H    23.26000023  34.22999954  57.00000000
H    22.63999939  35.54000092  58.00000000
S    11.77999973  31.11000061  55.80999756
C     9.15000057  30.84000015  56.60999680
C    10.43000031  31.22999954  56.95000076
C    10.80999947  31.80000114  58.20999908
C     9.78999996  32.02000046  59.12000275
C     8.47000027  31.56999969  58.87000275
C     7.42999983  31.63999939  59.84000397
C     6.12999964  31.27000046  59.59999847
C     5.84999990  30.51000214  58.43000031
C     6.83000040  30.46999931  57.45999908
C     8.14999962  30.97999954  57.60000229
C    12.25000000  31.98999786  58.27000046
C    12.89000034  31.80000114  57.02000046
C    14.27000046  31.84999847  56.81999969
C     4.48999977  29.89999962  58.18999863
H     4.01212788  30.36360741  57.32697678
H     9.04999924  30.26000023  55.68999863
H    10.08999920  32.31999969  60.12000275
H     7.73000002  32.04999924  60.80999756
H     5.40000010  31.19999886  60.40000153
H     6.63999987  29.84999847  56.58000183
H    14.85999966  31.53000069  55.97000122
H     3.91000009  30.12000084  59.09999847
H     4.51999998  28.81999969  58.02000046
S    11.77999973  29.11999893  52.64999771
C     9.22999954  28.47999954  53.57999802
C    10.59000015  28.45999908  53.79000092
C    11.17000008  27.96999931  55.00000000
C    10.40999985  27.36000061  55.97999954
C     9.02000046  27.29000092  55.72999954
C     8.18000031  26.70999908  56.72000122
C     6.83000040  26.60000038  56.52999878
C     6.23000050  27.09000015  55.34000015
C     7.00000000  27.72000122  54.38999939
C     8.40999985  27.80999947  54.52999878
C    12.61999989  28.15000153  54.94999695
C    13.09999943  28.77000046  53.76999664
C    14.44000053  29.15999985  53.68999863
C     4.73000002  27.03000069  55.19000244
H     4.32274532  26.66561508  54.24688721
H     8.76000023  28.88999939  52.69000244
H    10.85999966  26.91999817  56.86999893
H     8.67000008  26.35000038  57.63000107
H     6.19000006  26.12999916  57.27000427
H     6.53999996  28.39999962  53.67000198
H    14.77000046  29.67000008  52.78999710
H     4.25000000  26.53000069  56.04000092
H     4.46000004  28.09000015  55.31999969
S    16.10999870  28.34000015  57.09000015
C    18.68999863  29.17000008  56.25000000
C    17.32999992  29.07999992  56.04000092
C    16.79000092  29.38999939  54.75000000
C    17.61999893  29.86000061  53.75000000
C    19.03000069  29.89999962  53.89999771
C    19.93000031  30.38999939  52.90999985
C    21.27000046  30.51000214  53.15999985
C    21.78999901  30.17999840  54.45000076
C    20.95999908  29.61000061  55.38999939
C    19.55999947  29.48999786  55.17000198
C    15.39000034  29.00000000  54.69999695
C    14.81999969  28.46999931  55.89000320
C    13.52000046  27.96999931  56.00000000
C    23.19999886  30.52000046  54.86999893
H    23.54318810  30.11246490  55.82091141
H    19.19000053  28.78000069  57.11999893
H    17.31999969  30.22999954  52.77999878
H    19.54000092  30.76999855  51.97000122
H    21.86000061  30.85000038  52.31999969
H    21.21999931  29.47999954  56.43000031
H    13.14000034  27.65000153  56.97000122
H    23.26000023  31.61999893  54.89999771
H    23.85000038  30.30999947  54.01000214
