96

S    15.07999992  32.88999939  60.35999680
C    17.76000023  33.09000015  59.45999908
C    16.46999931  32.65999985  59.27999878
C    16.03999901  32.19000244  57.98999786
C    16.97000122  32.09999847  56.97000122
C    18.31999969  32.49000168  57.15000153
C    19.29999924  32.37999725  56.11000061
C    20.63999939  32.55000305  56.32999802
C    21.05999947  32.95999908  57.62000275
C    20.13000107  33.15999985  58.61999893
C    18.73999977  32.93000031  58.44999695
C    14.60000038  32.27000046  57.81999969
C    13.94000053  32.50999832  59.06000137
C    12.56000042  32.55000305  59.15000153
C    22.47999954  33.46999741  57.76000214
H    23.09029961  33.01582336  58.54061890
H    18.11000061  33.39999771  60.44000244
H    16.77999878  31.48999977  56.09000397
H    18.90999985  32.20000076  55.11000061
H    21.35000038  32.59000015  55.51000214
H    20.43000031  33.65999985  59.54000092
H    12.02999973  32.73999786  60.07999802
H    22.95999908  33.46999741  56.77000046
H    22.34000015  34.54000092  57.95999908
S    11.31999969  31.42999840  55.52999878
C     8.73999977  30.86999893  56.44000244
C     9.98000050  31.40000153  56.69000244
C    10.34000015  31.93000031  57.97000122
C     9.40999985  31.87000084  58.99000168
C     8.10000038  31.38000107  58.79000092
C     7.07000017  31.38999939  59.78000259
C     5.79999971  30.95999908  59.50000000
C     5.46999979  30.56999969  58.16999817
C     6.47000027  30.38999939  57.23999786
C     7.78999996  30.84000015  57.50000000
C    11.76000023  32.23999786  58.04000092
C    12.42000008  31.97999954  56.81000137
C    13.80000019  32.04000092  56.70000076
C     4.02999973  30.25000000  57.81999969
H     3.58735371  30.79259872  56.98468399
H     8.48999977  30.38999939  55.50000000
H     9.75000000  32.23999786  59.94999695
H     7.36999989  31.86000061  60.72000122
H     4.92999983  31.22999954  60.10000229
H     6.21999979  29.84999847  56.32999802
H    14.19000053  31.76000214  55.72000122
H     3.40000010  30.35000038  58.70999908
H     4.05999994  29.20999908  57.48000336
S    15.11999989  33.56999969  53.94000244
C    17.81999969  33.59999847  53.22000122
C    16.52000046  33.25000000  52.90999985
C    16.13999939  32.78000259  51.60999680
C    17.14999962  32.49000168  50.70000076
C    18.45000076  33.00000000  50.91999817
C    19.45999908  33.04000092  49.92000198
C    20.72999954  33.51000214  50.13000107
C    21.04999924  34.03000259  51.42000198
C    20.12000084  34.04000092  52.43999863
C    18.79999924  33.56999969  52.19999695
C    14.70999908  32.59999847  51.47999573
C    14.02999973  33.06000137  52.63000107
C    12.65999985  33.20000076  52.77000046
C    22.39999962  34.68000031  51.59999847
H    23.17759895  34.03794479  52.01376724
H    18.11000061  34.11999893  54.13000107
H    16.87000084  32.11999893  49.72000122
H    19.25000000  32.65000153  48.93000031
H    21.40999985  33.55999756  49.27999878
H    20.35000038  34.34000015  53.46000290
H    12.18000031  33.52999878  53.68999863
H    22.60999870  34.99000168  50.56999969
H    22.34000015  35.61000061  52.16999817
S    11.35000038  31.54000092  49.34000015
C     8.75000000  31.35000038  50.35999680
C    10.03999901  31.83000183  50.50000000
C    10.43000031  32.40000153  51.75000000
C     9.55000019  32.56000137  52.80000305
C     8.23999977  32.02999878  52.67000198
C     7.28999996  32.25000000  53.70999908
C     5.98999977  31.87999916  53.47000122
C     5.65000010  31.09999847  52.32999802
C     6.53999996  30.86000061  51.31000137
C     7.86999989  31.34000015  51.45999908
C    11.85999966  32.68000031  51.75000000
C    12.46999931  32.18000031  50.56999969
C    13.85000038  32.15999985  50.45999908
C     4.21000004  30.75000000  52.02999878
H     3.94732904  30.76419830  50.97221756
H     8.50000000  30.78000069  49.47000122
H     9.82999992  33.18999863  53.63999939
H     7.72000027  32.66999817  54.61000061
H     5.23999977  32.25000000  54.16999817
H     6.15000010  30.45000076  50.38000107
H    14.18000031  31.68999863  49.52999878
H     3.50000000  31.37000084  52.58999634
H     4.05000019  29.72999954  52.39999771
