96

S    15.21999931  33.34000015  60.34000015
C    17.94000053  33.34999847  59.59000015
C    16.63999939  32.97999954  59.34000015
C    16.27000046  32.29000092  58.13999939
C    17.27000046  32.20000076  57.18999863
C    18.55999947  32.77000046  57.34000397
C    19.52000046  32.77000046  56.27999878
C    20.79000092  33.23999786  56.49000168
C    21.19999886  33.65999985  57.77999878
C    20.28000069  33.79000092  58.80000305
C    18.98999977  33.22999954  58.62999725
C    14.85000038  32.02999878  58.04000092
C    14.14999962  32.56999969  59.15000153
C    12.76000023  32.65999985  59.20999908
C    22.65999985  33.90999985  58.08000183
H    23.18157196  33.43129349  58.90879822
H    18.20999908  33.97000122  60.43000031
H    17.09000015  31.67000008  56.25999832
H    19.22999954  32.27999878  55.34999847
H    21.54000092  33.11999893  55.72000122
H    20.48000145  34.15000153  59.80999756
H    12.35000038  33.25000000  60.01999664
H    23.09000015  33.50000000  57.15000153
H    22.77000046  35.00000000  58.00000000
S    11.54999924  31.12999916  55.77000046
C     8.85999966  31.07999992  56.46999741
C    10.13000011  31.51000023  56.77999878
C    10.55999947  32.00000000  58.04999924
C     9.63000011  32.31999969  59.02000046
C     8.36000061  31.73000145  58.80000305
C     7.40999985  31.68999863  59.86000061
C     6.15000010  31.14999962  59.82999802
C     5.78999996  30.48999977  58.61999893
C     6.69000053  30.45000076  57.57999802
C     7.96999979  31.07000160  57.57999802
C    12.00000000  32.13000107  58.15999985
C    12.69000053  31.73999977  56.98999786
C    14.07999992  31.63999939  56.93999863
C     4.33999968  30.12000084  58.44999695
H     3.78590775  30.71671486  57.72541809
H     8.76000023  30.52000046  55.54999924
H     9.81999969  32.80999756  59.97000122
H     7.76000023  32.13999939  60.79000092
H     5.55000019  31.18999863  60.72999954
H     6.28999996  30.03000069  56.65999985
H    14.56999969  31.40000153  56.00999832
H     3.86000013  30.39999962  59.40000153
H     4.23999977  29.03000069  58.34999847
S    11.39000034  28.72999954  52.88000107
C     8.84000015  28.22000122  53.87000275
C    10.19999981  28.18000031  54.08000183
C    10.80999947  27.76000023  55.30000305
C    10.01000023  27.27000046  56.31000137
C     8.60999966  27.19000053  56.11999893
C     7.69999981  26.54999924  57.01000214
C     6.34000015  26.47000122  56.79999924
C     5.79999971  27.17000008  55.68999863
C     6.61999989  27.79999924  54.78000259
C     8.02999973  27.70000076  54.91000366
C    12.25999928  27.89999962  55.30000305
C    12.69999981  28.36000061  54.02999878
C    14.04000092  28.68000031  53.88999939
C     4.32000017  27.36999893  55.47000122
H     3.83699727  26.82307053  54.66026306
H     8.40999985  28.68000031  52.97999954
H    10.46000004  26.70999908  57.12999725
H     8.13000011  26.15999985  57.93000031
H     5.72000027  25.98999977  57.56000137
H     6.11000013  28.23999786  53.93000031
H    14.27999973  29.18000031  52.95999908
H     3.88000011  27.25000000  56.46999741
H     4.19999981  28.45000076  55.31999969
S    15.71000004  28.12000084  57.47000122
C    18.22000122  29.04999924  56.60999680
C    16.87000084  28.88999939  56.37000275
C    16.29999924  29.04000092  55.06999969
C    17.09000015  29.56000137  54.06999969
C    18.48999977  29.61999893  54.26000214
C    19.34999847  30.05000114  53.20999908
C    20.72000122  30.09000015  53.36999893
C    21.28000069  29.84999847  54.65000153
C    20.51000214  29.47000122  55.72000122
C    19.10000038  29.37000084  55.54000092
C    14.89999962  28.64000130  54.99000168
C    14.45000076  28.11000061  56.23000336
C    13.09999943  27.81999969  56.42000198
C    22.72000122  30.27000046  54.82999802
H    23.16278839  29.89148712  55.75128555
H    18.71000099  28.75999832  57.54000092
H    16.68000031  29.64999962  53.06000137
H    18.86000061  30.48000145  52.34000397
H    21.40000153  30.36000061  52.56999969
H    20.76000023  29.47999954  56.77999878
H    12.77999973  27.50000000  57.39999771
H    22.67999840  31.37000084  54.72999954
H    23.35000038  29.84999847  54.02999878
