96

S    16.75000000  33.23999786  60.34999847
C    19.43000031  33.20000076  59.54999924
C    18.12999916  32.79000092  59.33000183
C    17.72999954  32.27000046  58.06000137
C    18.61999893  32.19000244  57.01000214
C    19.96999931  32.56999969  57.22000122
C    20.98999977  32.62000275  56.24000168
C    22.27000046  33.09000015  56.44000244
C    22.63999939  33.55999756  57.72999573
C    21.71999931  33.51000214  58.75000000
C    20.38000107  33.09999847  58.50000000
C    16.28999901  32.04000092  58.04999924
C    15.60999966  32.50000000  59.20999908
C    14.22999954  32.42000198  59.31999969
C    24.11000061  33.81999969  57.97000122
H    24.60831070  33.01558685  58.51102448
H    19.78999901  33.68999863  60.45000076
H    18.29000092  31.77000046  56.05999756
H    20.65000153  32.37999725  55.22999573
H    23.02999878  33.06999969  55.65999985
H    21.94000053  33.84000015  59.75999832
H    13.76000023  32.73999786  60.25000000
H    24.57999992  33.97000122  56.98999786
H    24.17000008  34.73999786  58.56999969
S    13.07000065  31.25999832  55.70999908
C    10.39000034  30.95999908  56.43000031
C    11.67000008  31.28999901  56.81000137
C    12.02000046  31.80999947  58.09000015
C    11.05000019  31.84000015  59.08000183
C     9.72000027  31.45000076  58.77999878
C     8.61999989  31.50000000  59.68000031
C     7.32999992  31.15999985  59.34999847
C     7.04999971  30.62999916  58.06000137
C     8.05000019  30.69999886  57.11999893
C     9.38000011  31.07000160  57.43000031
C    13.45000076  32.04999924  58.22000122
C    14.14999962  31.73000145  57.02999878
C    15.53999996  31.68999863  56.91999817
C     5.68000031  30.05000114  57.81000137
H     5.08335018  30.63954735  57.11391068
H    10.21000004  30.52999878  55.45000076
H    11.26000023  32.21999741  60.07999802
H     8.82999992  32.00999832  60.61000061
H     6.60000038  31.31000137  60.13999939
H     7.82000017  30.26000023  56.14999771
H    16.03000069  31.42999840  55.98999786
H     5.13000011  29.84000015  58.73000336
H     5.84999990  29.02000046  57.44999695
S    13.35999966  29.34999847  52.81000137
C    10.78999996  28.57000160  53.59000397
C    12.13999939  28.54999924  53.82999802
C    12.69999981  28.03999901  55.05000305
C    11.87999916  27.34000015  55.90999985
C    10.50000000  27.22999954  55.61999893
C     9.55999947  26.56999969  56.45999908
C     8.23999977  26.42999840  56.11000061
C     7.68000031  27.07999992  54.98000336
C     8.55000019  27.76000023  54.15000153
C     9.92000008  27.89999962  54.48999786
C    14.13000011  28.31999969  55.13999939
C    14.60999966  29.07999992  54.03999710
C    15.95000076  29.40999985  53.90999603
C     6.21000004  27.39000130  54.86000061
H     5.67716408  26.80032730  54.11402893
H    10.36000061  29.05999947  52.71999741
H    12.34000015  26.71999931  56.68000031
H     9.98000050  26.11000061  57.36000061
H     7.51999950  26.04999924  56.83000183
H     8.14000034  28.29000092  53.29999924
H    16.35000038  29.72999954  52.95000076
H     5.71000004  27.13000107  55.79999924
H     5.98999977  28.44000053  54.65999985
S    17.59000015  27.93999863  57.18999863
C    20.20000076  28.45000076  56.29000092
C    18.85000038  28.54000092  56.09000397
C    18.34000015  29.11999893  54.87999725
C    19.15999985  29.63000107  53.88999939
C    20.55000114  29.60000038  54.13000107
C    21.40000153  30.20999908  53.15999985
C    22.75000000  30.29999924  53.37999725
C    23.29999924  29.60000038  54.50000000
C    22.50000000  28.98999977  55.43000031
C    21.07999992  29.00000000  55.33000183
C    16.87999916  29.02000046  54.87999725
C    16.35000038  28.31000137  55.97999954
C    15.01000023  28.01000214  56.18999863
C    24.70999908  29.94999886  54.91000366
H    25.14463234  29.44411659  55.77214050
H    20.52000046  27.79000092  57.09000015
H    18.77000046  29.86000061  52.90000153
H    20.90999985  30.59999847  52.27000427
H    23.36999893  30.89999962  52.71999741
H    23.00000000  28.54000092  56.29000092
H    14.65999985  27.39999962  57.02000046
H    24.82000160  31.02999878  55.06999969
H    25.34000015  29.87999916  54.01000214
