96

S    15.72000027  32.54000092  60.38999939
C    18.25000000  33.20999908  59.34000015
C    17.02000046  32.62000275  59.16999817
C    16.64999962  32.00999832  57.94000244
C    17.54999924  32.11000061  56.88999939
C    18.88000107  32.56999969  57.02999878
C    19.88000107  32.70000076  56.02000427
C    21.12999916  33.18999863  56.29000092
C    21.50000000  33.68999863  57.56999969
C    20.51000214  33.68999863  58.52000427
C    19.22999954  33.09999847  58.31999969
C    15.26999950  31.52000046  57.93000031
C    14.65000057  31.81999969  59.16999817
C    13.27000046  31.84999847  59.36999893
C    22.88000107  34.20999908  57.88999939
H    23.47575188  33.57169342  58.54249191
H    18.55999947  33.62999725  60.28999710
H    17.20999908  31.78999901  55.90999985
H    19.64999962  32.29000092  55.04000092
H    21.80999947  33.04999924  55.45000076
H    20.62999916  34.27999878  59.41999817
H    12.84999943  32.18000031  60.31000137
H    23.45000076  34.38999939  56.97000122
H    22.79999924  35.19000244  58.36999893
S    11.92000008  30.95000076  55.72000122
C     9.22999954  30.71000099  56.59000015
C    10.55999947  30.95000076  56.86000061
C    11.03999996  31.45000076  58.11999893
C    10.06999969  31.60000038  59.09000015
C     8.71000004  31.28000069  58.88999939
C     7.81000042  31.40999985  59.99000168
C     6.51999998  30.96999931  59.80999756
C     6.11000013  30.36999893  58.59000397
C     6.94999981  30.22000122  57.51999664
C     8.26000023  30.76000023  57.63000107
C    12.48000050  31.57999992  58.23999786
C    13.09999943  31.34000015  56.98999786
C    14.47000027  31.28000069  56.81000137
C     4.73000002  29.76000023  58.47999954
H     4.11336231  30.43334007  57.88462448
H     8.97000027  30.25000000  55.65000153
H    10.39000034  31.76000214  60.12000275
H     8.22000027  31.84000015  60.90000153
H     5.73999977  30.95999908  60.56999969
H     6.67999983  29.63999939  56.63999939
H    14.88000011  31.28000069  55.80999756
H     4.32000017  29.44999886  59.45999908
H     4.90000010  28.88000107  57.84999847
S    12.02000046  28.68000031  52.64999771
C     9.46000004  27.98999977  53.69999695
C    10.84000015  27.98999977  53.77999878
C    11.50000000  27.40999985  54.91000366
C    10.75000000  26.78999901  55.89000320
C     9.34000015  26.73999977  55.79000092
C     8.50000000  26.04999924  56.70999908
C     7.11999989  26.09999847  56.70999908
C     6.48000002  26.73000145  55.61999893
C     7.23999977  27.36000061  54.65000153
C     8.65999985  27.39999962  54.69999695
C    12.92000008  27.70000076  54.89999771
C    13.38000107  28.39999962  53.75999832
C    14.61999989  29.01000023  53.67000198
C     4.99000025  27.01000023  55.56999969
H     4.56413794  26.58413696  54.66149521
H     9.02999973  28.64999962  52.95000076
H    11.28999901  26.30000114  56.69000244
H     8.98999977  25.56999969  57.55000305
H     6.51000023  25.62000084  57.47000122
H     6.76999998  27.96999931  53.88999939
H    14.86999989  29.70000076  52.85999680
H     4.50000000  26.73999977  56.51000214
H     4.81999969  28.09000015  55.52000046
S    16.36999893  27.72000122  57.00000000
C    18.90999985  28.78999901  56.32999802
C    17.56999969  28.59999847  56.03000259
C    16.95000076  29.07999992  54.82999802
C    17.72999954  29.67000008  53.86000061
C    19.11999893  29.86000061  54.09000015
C    19.96999931  30.36000061  53.06999969
C    21.34000015  30.27000046  53.13999939
C    21.93000031  29.92000198  54.38000107
C    21.11999893  29.43000031  55.38000107
C    19.70000076  29.34000015  55.28999710
C    15.54999924  28.72999954  54.68000031
C    15.08999920  28.02000046  55.81999969
C    13.80000019  27.53000069  55.97999954
C    23.42000008  30.10000038  54.52999878
H    23.82562065  30.05018806  55.54048920
H    19.37000084  28.38999939  57.22999954
H    17.32999992  30.00999832  52.90000153
H    19.47000122  30.78000069  52.19999695
H    21.90000153  30.69000053  52.30999756
H    21.64999962  29.20000076  56.31000137
H    13.48999977  27.21999931  56.97999954
H    23.74000168  31.05999947  54.09000015
H    23.92999840  29.34000015  53.94000244
