96

S    15.36999893  33.01000214  59.87999725
C    17.94999886  33.34999847  58.89999771
C    16.65999985  32.93999863  58.66000366
C    16.17000008  32.43999863  57.41000366
C    17.12000084  32.20999908  56.43000031
C    18.45999908  32.63000107  56.60999680
C    19.37999916  32.79000092  55.54000092
C    20.62999916  33.34999847  55.63999939
C    21.05999947  33.69999695  56.95000076
C    20.23999977  33.59999847  58.04999924
C    18.92000008  33.09999847  57.88999939
C    14.75000000  32.13000107  57.43000031
C    14.18000031  32.49000168  58.68000031
C    12.79999924  32.43999863  58.88999939
C    22.52000046  34.04999924  57.12999725
H    22.94097519  33.47918701  57.95767593
H    18.27999878  33.81999969  59.81999969
H    16.79999924  31.83000183  55.45999908
H    19.00000000  32.50000000  54.55999756
H    21.38999939  33.25000000  54.86999893
H    20.62999916  33.91999817  59.01000214
H    12.36999989  32.73999786  59.84000397
H    23.02000046  33.59000015  56.26999664
H    22.72000122  35.13000107  57.08000183
S    11.46000004  31.05999947  55.38000107
C     8.82000065  30.92000008  56.31000137
C    10.11000061  31.35999870  56.49000168
C    10.55999947  31.86000061  57.76000214
C     9.65999985  32.00000000  58.80000305
C     8.31999969  31.60000038  58.61999893
C     7.46000004  31.54999924  59.75000000
C     6.19999981  31.00000000  59.68000031
C     5.73999977  30.40999985  58.47000122
C     6.61000013  30.36000061  57.41000366
C     7.90999985  30.95000076  57.39999771
C    12.00000000  32.06000137  57.80000305
C    12.61999989  31.57999992  56.60999680
C    13.99000072  31.50000000  56.44000244
C     4.34999990  29.82000160  58.36000061
H     3.82993484  30.19045830  57.47660065
H     8.61999989  30.51000214  55.31999969
H     9.94000053  32.27000046  59.80999756
H     8.00000000  31.80000114  60.65999985
H     5.65999985  30.88999939  60.61000061
H     6.25999975  29.99000168  56.45000076
H    14.60000038  31.22999954  55.58000183
H     3.81999993  30.03000069  59.29000092
H     4.34999990  28.71999931  58.27000046
S    11.63000011  28.94000053  52.25999832
C     9.15999985  28.12999916  53.09000015
C    10.52000046  28.09000015  53.34000015
C    11.13000011  27.47999954  54.47999954
C    10.27999973  26.90000153  55.40999985
C     8.88000011  26.90000153  55.21999741
C     7.96999979  26.38000107  56.18000031
C     6.61999989  26.37000084  55.91999817
C     6.06999969  27.06000137  54.80999756
C     6.90999985  27.60000038  53.86000061
C     8.30999947  27.53999901  54.06000137
C    12.55000019  27.78000069  54.54999924
C    12.90999985  28.57999992  53.43000031
C    14.22999954  29.01000023  53.31999969
C     4.57999992  27.29000092  54.79000092
H     4.06727791  26.59924889  54.12061310
H     8.71999931  28.64000130  52.23999786
H    10.70000076  26.44000053  56.30000305
H     8.23000050  25.88000107  57.11000061
H     5.98999977  26.02999878  56.73999786
H     6.57999992  28.16999817  52.98999786
H    14.63000107  29.38999939  52.38999939
H     4.21999979  27.20999908  55.83000183
H     4.51999998  28.31000137  54.38999939
S    16.01000023  27.82999992  56.66999817
C    18.57999992  28.39999962  55.61000061
C    17.20999908  28.46999931  55.54000092
C    16.56999969  29.04000092  54.38999939
C    17.29999924  29.60000038  53.36000061
C    18.71000099  29.60000038  53.39000320
C    19.56999969  30.26000023  52.45999908
C    20.92000008  30.38000107  52.70000076
C    21.48999977  29.84000015  53.88000107
C    20.71000099  29.14999962  54.78000259
C    19.31999969  28.98999977  54.54999924
C    15.14999962  28.72999954  54.34000015
C    14.68999958  28.09000015  55.52000046
C    13.42000008  27.53000069  55.61999893
C    22.81999969  30.45999908  54.25000000
H    23.44660568  29.80491066  54.85524750
H    19.07999992  28.05999947  56.52000046
H    16.92000008  30.06000137  52.44999695
H    19.13999939  30.81000137  51.63000107
H    21.45999908  31.04999924  52.04000092
H    21.15999985  28.78000069  55.70000076
H    13.09000015  27.13999939  56.58000183
H    22.67999840  31.38000107  54.82999802
H    23.38000107  30.81000137  53.37999725
