96

S    14.52000046  32.78000259  60.30000305
C    17.12000084  33.00000000  59.43999863
C    15.84000015  32.61000061  59.13000107
C    15.46000004  32.21999741  57.80000305
C    16.44000053  32.15999985  56.83000183
C    17.78000069  32.47000122  57.15999985
C    18.78000069  32.45999908  56.13999939
C    20.03999901  32.97000122  56.32999802
C    20.45000076  33.34000015  57.63999939
C    19.50000000  33.32999802  58.61999893
C    18.15000153  32.86999893  58.48999786
C    14.01000023  32.11999893  57.75000000
C    13.38000107  32.47000122  58.97999573
C    12.00000000  32.34999847  59.10999680
C    21.77000046  34.04999924  57.85999680
H    22.36200142  33.70763779  58.70877457
H    17.32999992  33.47999954  60.40000153
H    16.14999962  31.90999985  55.80999756
H    18.36000061  32.18000031  55.17000198
H    20.65999985  33.29999924  55.50000000
H    19.67000008  33.77999878  59.59999847
H    11.51000023  32.47999954  60.06999969
H    22.36999893  34.09000015  56.95000076
H    21.48999977  35.09999847  58.04999924
S    10.70000076  31.19999886  55.52000046
C     8.10000038  30.72000122  56.37000275
C     9.34000015  31.24000168  56.65999985
C     9.76000023  31.80999947  57.90000153
C     8.78999996  31.90999985  58.88000107
C     7.50999975  31.34000015  58.70999908
C     6.51999998  31.40999985  59.73999786
C     5.31000042  30.79000092  59.56999969
C     5.01999950  30.09000015  58.36999893
C     5.95000029  30.02000046  57.36000061
C     7.18999958  30.72000122  57.45999908
C    11.18999958  32.06000137  58.00000000
C    11.82999992  31.77999878  56.77000046
C    13.21000004  31.84999847  56.63000107
C     3.65000010  29.60000038  57.95999908
H     3.26493979  30.20611382  57.13996506
H     8.05000019  30.09000015  55.48999786
H     9.10000038  32.20000076  59.87999725
H     6.84999990  31.86000061  60.66999817
H     4.50000000  30.93000031  60.28999710
H     5.65000010  29.76000023  56.35000229
H    13.59000015  31.50000000  55.68000031
H     2.96999979  29.82000160  58.79000092
H     3.70000005  28.50000000  57.88000107
S    14.88000011  33.39999771  53.95999908
C    17.45000076  33.84999847  53.15000153
C    16.23999977  33.29000092  52.81999969
C    15.84000015  32.83000183  51.52000046
C    16.81999969  32.77000046  50.54000092
C    18.01000023  33.51000214  50.73999786
C    19.03000069  33.55999756  49.75000000
C    20.29000092  34.04000092  50.01999664
C    20.53999901  34.61999893  51.29000092
C    19.57999992  34.63999939  52.27000427
C    18.29000092  34.08000183  52.02999878
C    14.39000034  32.78000259  51.43000031
C    13.71999931  33.11999893  52.63999939
C    12.34000015  33.15999985  52.75000000
C    21.97000122  35.00999832  51.60999680
H    22.43265724  34.29110336  52.28619003
H    17.79000092  34.25000000  54.09999847
H    16.69000053  32.20999908  49.61999893
H    18.73999977  33.04999924  48.82999802
H    21.04999924  33.88999939  49.26000214
H    19.86999893  34.94999695  53.27000046
H    11.87999916  33.34999847  53.70999908
H    22.60999870  35.02999878  50.72000122
H    22.01000023  36.02000046  52.02000046
S    11.16000080  31.68999863  49.22000122
C     8.60000038  31.11000061  50.27000046
C     9.82999992  31.70999908  50.40000153
C    10.15999985  32.38999939  51.62000275
C     9.22000027  32.59000015  52.61000061
C     7.92999983  32.02000046  52.49000168
C     6.90000010  32.11999893  53.47000122
C     5.65999985  31.54999924  53.34000015
C     5.33999968  30.93000031  52.09999847
C     6.34999990  30.69000053  51.19999695
C     7.67000008  31.18999863  51.33999634
C    11.59000015  32.65999985  51.68000031
C    12.22000027  32.43999863  50.43000031
C    13.60000038  32.59000015  50.30000305
C     3.89999986  30.61000061  51.75000000
H     3.36528611  31.35859871  51.16537857
H     8.28999996  30.55000114  49.38999939
H     9.55000019  33.06000137  53.53000259
H     7.00999975  32.73999786  54.36000061
H     4.97000027  31.80999947  54.13000107
H     6.05000019  30.34000015  50.21999741
H    14.13000011  32.27999878  49.40000153
H     3.38999987  30.38000107  52.69000244
H     4.03999996  29.67000008  51.19999695
