96

S    14.88999939  33.16999817  60.45999908
C    17.47999954  33.59999847  59.54999924
C    16.26000023  32.99000168  59.34999847
C    16.00000000  32.31999969  58.11000061
C    16.95000076  32.27000046  57.11000061
C    18.23999977  32.78000259  57.36999893
C    19.37999916  32.55000305  56.53999710
C    20.68000031  32.90000153  56.81999969
C    20.92000008  33.68999863  57.97999954
C    19.85000038  33.97000122  58.80000305
C    18.53000069  33.46999741  58.60000229
C    14.55999947  32.14999771  58.06999969
C    13.81000042  32.47000122  59.22999954
C    12.43000031  32.50999832  59.31999969
C    22.26000023  34.31000137  58.27999878
H    22.79877472  33.65071106  58.96055603
H    17.75000000  34.22999954  60.40000153
H    16.69999886  31.84999847  56.13999939
H    19.34999847  31.90999985  55.66999817
H    21.48999977  32.59999847  56.16000366
H    19.96999931  34.61000061  59.66999817
H    12.03999996  33.04999924  60.18000031
H    22.81999969  34.26000214  57.34000397
H    22.13000107  35.36000061  58.56999969
S    11.28999901  31.12999916  55.80999756
C     8.60999966  30.88999939  56.59999847
C     9.88000011  31.35999870  56.86000061
C    10.24000072  31.77999878  58.18000031
C     9.30999947  32.04999924  59.15999985
C     7.97999954  31.61999893  58.90999603
C     6.94000006  31.78999901  59.86999893
C     5.72000027  31.25999832  59.56999969
C     5.42000008  30.50000000  58.40000153
C     6.34000015  30.55000114  57.37999725
C     7.67000008  30.98999977  57.64999771
C    11.69000053  31.94999886  58.27000046
C    12.39999962  31.65999985  57.08000183
C    13.78999901  31.68000031  56.98999786
C     4.02999973  30.03999901  58.04000092
H     3.65171480  30.66809654  57.23346710
H     8.39999962  30.42000008  55.63999939
H     9.47000027  32.61000061  60.07999802
H     7.26000023  32.21999741  60.81999969
H     4.94999981  31.45000076  60.31000137
H     6.12999964  30.15000153  56.39999771
H    14.32000065  31.35000038  56.11000061
H     3.48000002  30.00999832  59.00000000
H     3.95000005  28.97999954  57.75000000
S    15.17000008  33.54999924  54.20999908
C    17.81999969  33.31000137  53.46000290
C    16.50000000  33.09000015  53.13999939
C    16.06999969  32.66999817  51.84000015
C    16.97999954  32.70999908  50.79999924
C    18.35000038  32.90000153  51.04999924
C    19.23999977  33.11000061  49.94999695
C    20.55000114  33.41999817  50.25000000
C    21.00000000  33.72999954  51.56000137
C    20.10999870  33.59000015  52.60000229
C    18.76000023  33.18000031  52.39999771
C    14.61999989  32.57999802  51.79000092
C    13.99000072  33.04999924  52.97999954
C    12.61000061  33.15999985  53.00000000
C    22.36000061  34.33000183  51.81999969
H    22.80024529  33.88975525  52.71469116
H    18.09999847  33.79000092  54.38999939
H    16.61000061  32.43000031  49.80999756
H    18.92000008  33.15999985  48.92000198
H    21.21999931  33.52999878  49.40000153
H    20.26000023  33.97000122  53.60000229
H    12.23000050  33.40999985  53.99000168
H    22.90999985  34.04000092  50.91999817
H    22.23999977  35.42000198  51.84999847
S    11.31999969  31.87000084  49.52000046
C     8.64999962  31.63000107  50.27999878
C     9.94000053  31.97000122  50.61999893
C    10.38000011  32.43000031  51.90000153
C     9.39999962  32.56000137  52.87000275
C     8.05000019  32.27999878  52.56000137
C     7.04999971  32.13000107  53.55999756
C     5.79999971  31.63999939  53.27999878
C     5.36999989  31.35999870  51.95999908
C     6.34000015  31.28999901  50.98999786
C     7.63999987  31.81999969  51.25999832
C    11.80999947  32.72000122  51.93999863
C    12.48999977  32.37999725  50.73999786
C    13.88000011  32.33000183  50.63000107
C     3.97000027  30.82999992  51.72000122
H     3.47658443  31.38062286  50.91909409
H     8.45000076  31.21000099  49.29000092
H     9.63000011  32.93000031  53.86000061
H     7.40000010  32.06000137  54.59000015
H     5.09999990  31.40999985  54.08000183
H     6.07999992  30.84000015  50.04000092
H    14.45000076  32.14999771  49.72000122
H     3.60000014  30.95000076  52.75000000
H     4.01999998  29.73999977  51.56000137
