96

S    15.85000038  33.04000092  60.19000244
C    18.51000023  33.39999771  59.34000015
C    17.25000000  32.92000198  59.10999680
C    16.87999916  32.27000046  57.88999939
C    17.86999893  32.11999893  56.93000031
C    19.22999954  32.43999863  57.12999725
C    20.25000000  31.98999786  56.24000168
C    21.56999969  32.33000183  56.46999741
C    21.80000114  33.22999954  57.55000305
C    20.85000038  33.58000183  58.47999954
C    19.50000000  33.13000107  58.36000061
C    15.43000031  32.15999985  57.77000046
C    14.70999908  32.49000168  58.95000076
C    13.34000015  32.70000076  58.95999908
C    23.21000099  33.67000198  57.87000275
H    23.62165833  33.45707321  58.85656357
H    18.63000107  34.03000259  60.22999573
H    17.65999985  31.44000053  56.11000061
H    19.90999985  31.61000061  55.28999710
H    22.36000061  32.21999741  55.73999786
H    21.21000099  34.11000061  59.36000061
H    12.82999992  33.09000015  59.84000397
H    23.80000114  33.25000000  57.04999924
H    23.35000038  34.73999786  57.70999908
S    12.15999985  31.07999992  55.52000046
C     9.51000023  30.79000092  56.36000061
C    10.77000046  31.27000046  56.59999847
C    11.17000008  31.94999886  57.80000305
C    10.17000008  32.29000092  58.69999695
C     8.82999992  31.88999939  58.50000000
C     7.76999998  32.13999939  59.40999985
C     6.51999998  31.59000015  59.22999954
C     6.28000021  30.86000061  58.02999878
C     7.21000004  30.65000153  57.04999924
C     8.53999996  31.04000092  57.36999893
C    12.60000038  32.19000244  57.88999939
C    13.27999973  31.73999977  56.72999954
C    14.67000008  31.77999878  56.65999985
C     4.88000011  30.36000061  57.70000076
H     4.38118076  30.86594772  56.87338257
H     9.22000027  30.22999954  55.47000122
H    10.44999981  32.78000259  59.62999725
H     7.96999979  32.59000015  60.38000107
H     5.69999981  31.73999977  59.92000198
H     7.03999996  30.06000137  56.14999771
H    15.21000004  31.38000107  55.79999924
H     4.28000021  30.36999893  58.61999893
H     4.99000025  29.28999901  57.49000168
S    12.32999992  28.74000168  52.39999771
C     9.70000076  28.11000061  53.26000214
C    11.05999947  28.02999878  53.40999985
C    11.57999992  27.81999969  54.72999954
C    10.76000023  27.30999947  55.72000122
C     9.35999966  27.21999931  55.52000046
C     8.43000031  26.71999931  56.47999573
C     7.07000017  26.80999947  56.29000092
C     6.54999971  27.30999947  55.06999969
C     7.40000010  27.76000023  54.08000183
C     8.80999947  27.70999908  54.29000092
C    13.02000046  27.95000076  54.82999802
C    13.56999969  28.52999878  53.64999771
C    14.92000008  28.85000038  53.54999924
C     5.12000036  27.75000000  54.88999939
H     4.57526350  27.20526314  54.11888123
H     9.31999969  28.61999893  52.37999725
H    11.17000008  26.81999969  56.60999680
H     8.85000038  26.31999969  57.38999939
H     6.37000036  26.40000153  57.02000046
H     7.03000021  28.28000069  53.20000076
H    15.29999924  29.37999916  52.68000031
H     4.61999989  27.67999840  55.86000061
H     5.14999962  28.80000114  54.59000015
S    16.32999992  27.93999863  57.16999817
C    18.97999954  28.26999855  56.35000229
C    17.64000130  28.43000031  56.06999969
C    17.17000008  28.92000008  54.80999756
C    18.12999916  29.17000008  53.85000229
C    19.52000046  29.23999977  54.12000275
C    20.50000000  29.72999954  53.22000122
C    21.83000183  29.56000137  53.54000092
C    22.22999954  29.07999992  54.80999756
C    21.30000114  28.71000099  55.76000214
C    19.92000008  28.75000000  55.40999985
C    15.73999977  28.68999863  54.66999817
C    15.17000008  28.15000153  55.84999847
C    13.85000038  27.72999954  55.93999863
C    23.68000031  28.71000099  55.04000092
H    24.05521011  29.05689240  56.00279999
H    19.31999969  27.85000038  57.29999924
H    17.79999924  29.30000114  52.81999969
H    20.19000053  29.97999954  52.21000290
H    22.57999802  29.77000046  52.77999878
H    21.56999969  28.13999939  56.63999939
H    13.38000107  27.20999908  56.77000046
H    24.21999931  29.31999969  54.31000137
H    23.81000137  27.65000153  54.75000000
