96

S    15.14000034  33.25999832  60.66999817
C    17.76000023  33.61999893  59.79000092
C    16.54000092  33.02000046  59.59999847
C    16.18000031  32.47999954  58.31999969
C    17.13999939  32.47999954  57.31999969
C    18.38999939  33.11000061  57.49000168
C    19.32999992  33.13999939  56.42000198
C    20.65999985  33.34999847  56.70999908
C    21.00000000  33.93000031  57.95999908
C    20.10000038  34.04000092  59.00000000
C    18.76000023  33.63999939  58.77999878
C    14.73999977  32.27999878  58.22999954
C    14.04999924  32.63000107  59.41999817
C    12.65999985  32.68000031  59.47999954
C    22.36000061  34.57999802  58.09000015
H    22.91611481  34.04527283  58.86000443
H    17.97000122  33.98999786  60.79000092
H    16.87000084  32.19000244  56.31000137
H    19.03000069  32.92000198  55.40999985
H    21.45999908  33.38000107  55.97000122
H    20.42000008  34.45000076  59.95999908
H    12.15999985  33.02999878  60.38000107
H    22.88000107  34.50000000  57.11999893
H    22.09000015  35.63000107  58.27000046
S    11.44000053  31.55999947  55.86000061
C     8.86999989  30.92000008  56.83000183
C    10.08999920  31.54000092  57.00000000
C    10.48999977  32.09000015  58.26000214
C     9.59000015  32.09000015  59.31000137
C     8.32999992  31.47000122  59.13000107
C     7.39000034  31.47000122  60.20999908
C     6.12999964  30.94000053  60.14999771
C     5.75000000  30.34000015  58.90999603
C     6.60000038  30.36000061  57.83000183
C     7.92000008  30.88999939  57.88000107
C    11.92000008  32.33000183  58.34999847
C    12.58999920  32.00999832  57.14000320
C    13.97999954  32.00999832  57.09000015
C     4.32000017  29.86000061  58.82999802
H     3.77740240  30.30264664  57.99468231
H     8.55000019  30.38000107  55.93999863
H     9.80000019  32.47000122  60.31000137
H     7.81000042  31.97000122  61.07999802
H     5.49000025  31.01000023  61.02000427
H     6.32000017  30.15000153  56.79999924
H    14.44000053  31.73000145  56.14999771
H     3.75000000  30.20999908  59.69999695
H     4.21000004  28.77000046  58.93000031
S    11.38000011  29.27000046  52.63999939
C     8.90999985  28.43000031  53.52000427
C    10.26999950  28.45999908  53.75999832
C    10.85999966  27.95999908  54.95999908
C    10.07999992  27.34999847  55.91999817
C     8.67999935  27.29000092  55.73999786
C     7.82999992  26.80000114  56.77000046
C     6.47000027  26.77999878  56.59999847
C     5.91000032  27.30999947  55.40000153
C     6.70000029  27.79000092  54.38000107
C     8.10999966  27.81999969  54.52000046
C    12.28000069  28.26999855  54.89999771
C    12.72999954  28.95999908  53.74000168
C    14.06999969  29.33000183  53.64999771
C     4.41000032  27.34999847  55.19000244
H     4.07637262  26.47688866  54.62922287
H     8.43000031  28.80000114  52.62000275
H    10.65999985  27.03000069  56.79000092
H     8.30999947  26.40999985  57.67000198
H     5.84999990  26.21000099  57.29000092
H     6.21999979  28.29999924  53.54999924
H    14.37999916  29.97999954  52.83000183
H     3.94000006  27.37999916  56.18000031
H     4.07999992  28.26999855  54.68999863
S    15.77000046  28.22000122  57.08000183
C    18.32999992  29.02000046  56.16000366
C    16.97000122  28.92999840  55.98999786
C    16.42000008  29.37000084  54.73999786
C    17.21999931  29.96999931  53.77999878
C    18.59000015  30.19000053  54.03999710
C    19.45999908  30.85000038  53.13000107
C    20.79000092  31.05999947  53.41999817
C    21.30000114  30.68000031  54.68999863
C    20.46999931  30.19000053  55.66999817
C    19.17000008  29.76000023  55.28999710
C    15.01000023  29.03000069  54.64000320
C    14.52000046  28.43000031  55.83000183
C    13.20000076  28.01000214  55.91999817
C    22.79999924  30.48000145  54.79999924
H    23.14783096  30.62907219  55.82219696
H    18.77000046  28.67000198  57.09000015
H    16.77999878  30.29999924  52.84999847
H    18.90999985  31.11000061  52.22999954
H    21.48999977  31.22999954  52.61000061
H    20.79000092  29.89000130  56.65999985
H    12.69999981  27.75000000  56.86000061
H    23.36000061  31.07999992  54.06999969
H    22.98999977  29.44999886  54.45000076
