96

S    14.78999996  32.47000122  60.47999954
C    17.43000031  32.97000122  59.61999893
C    16.13999939  32.59000015  59.33000183
C    15.69000053  32.37999725  57.97999954
C    16.61999893  32.44999695  56.95999908
C    17.97999954  32.75000000  57.21000290
C    18.94000053  33.02999878  56.19999695
C    20.17999840  33.52999878  56.52000046
C    20.52000046  33.75999832  57.88000107
C    19.63999939  33.54000092  58.92000198
C    18.38000107  32.97999954  58.56999969
C    14.25000000  32.22999954  57.93000031
C    13.60000038  32.23999786  59.19000244
C    12.23000050  32.06999969  59.34999847
C    21.94999886  34.11999893  58.20999908
H    22.39705849  33.49553299  58.98348618
H    17.67000008  33.29000092  60.63000107
H    16.22999954  32.56000137  55.94999695
H    18.60000038  32.88000107  55.18000031
H    20.85000038  33.70999908  55.68999863
H    19.85000038  33.88000107  59.93999863
H    11.82999992  32.06000137  60.35999680
H    22.55000114  34.13000107  57.29000092
H    22.09000015  35.13999939  58.59000397
S    11.03999996  31.45000076  55.61000061
C     8.52999973  30.48999977  56.47999573
C     9.72000027  31.11000061  56.75000000
C    10.01999950  31.53000069  58.08000183
C     9.02999973  31.54999924  59.05000305
C     7.73999977  31.05999947  58.74000168
C     6.75000000  31.04000092  59.75999832
C     5.55000019  30.45999908  59.43000031
C     5.25000000  29.92000198  58.15000153
C     6.25000000  29.79999924  57.22000122
C     7.50000000  30.43999863  57.45999908
C    11.44999981  31.78999901  58.20999908
C    12.11999989  31.84000015  56.97000122
C    13.47000027  32.11000061  56.77000046
C     3.86000013  29.43000031  57.80000305
H     3.39052582  30.07019234  57.05311203
H     8.31999969  29.99000168  55.54000092
H     9.31999969  31.86000061  60.05000305
H     7.03999996  31.35000038  60.76000214
H     4.76999998  30.40999985  60.19000244
H     6.05999994  29.30999947  56.26999664
H    13.93000031  32.07999802  55.77999878
H     3.25999999  29.54000092  58.70999908
H     3.81999993  28.40999985  57.41000366
S    11.31000042  29.26000214  52.60000229
C     8.76000023  28.31999969  53.39000320
C    10.08999920  28.52000046  53.66000366
C    10.70000076  28.00000000  54.84000397
C     9.96999931  27.21999931  55.72999954
C     8.57999992  27.10000038  55.54000092
C     7.73000002  26.45999908  56.49000168
C     6.38999987  26.35999870  56.18999863
C     5.79999971  26.84999847  55.00000000
C     6.56000042  27.60999870  54.13999939
C     7.96000004  27.72000122  54.40000153
C    12.10999966  28.36999893  54.99000168
C    12.56000042  29.05999947  53.83999634
C    13.85000038  29.57999992  53.72000122
C     4.32000017  26.61000061  54.77000427
H     3.89411187  26.92941666  53.81885147
H     8.23999977  28.75999832  52.54000092
H    10.40999985  26.77000046  56.62000275
H     8.18000031  26.14999962  57.43000031
H     5.72000027  26.02000046  56.97000122
H     6.21999979  28.09000015  53.22999954
H    14.13000011  30.07999802  52.78999710
H     4.15999985  25.52999878  54.81999969
H     3.86999989  27.13999939  55.61999893
S    15.57000065  28.26000023  57.08000183
C    18.11000061  29.10000038  56.22000122
C    16.75000000  29.07999992  56.03000259
C    16.13000107  29.56000137  54.82999802
C    16.92000008  30.06999969  53.81999969
C    18.30999947  30.25000000  54.02999878
C    19.10000038  30.93000031  53.06999969
C    20.43999863  31.09000015  53.30999756
C    21.11999893  30.50000000  54.40999985
C    20.31999969  29.84999847  55.31999969
C    18.92000008  29.64999962  55.19000244
C    14.70000076  29.30999947  54.79000092
C    14.28999996  28.46999931  55.86999893
C    12.97999954  28.05999947  56.04000092
C    22.56999969  30.85000038  54.68000031
H    22.93529701  30.48470497  55.63980103
H    18.53000069  28.75999832  57.15999985
H    16.61000061  30.48999977  52.85999680
H    18.70000076  31.17000198  52.08000183
H    21.02000046  31.68999863  52.61000061
H    20.62000084  29.51999855  56.31000137
H    12.46999931  27.63000107  56.90000153
H    22.72999954  31.93000031  54.72000122
H    23.16999817  30.25000000  53.97999573
