96

S    15.19999981  32.93000031  60.30000305
C    17.84000015  33.29000092  59.45999908
C    16.57999992  32.78000259  59.20000076
C    16.14999962  32.19000244  57.97000122
C    17.12000084  32.07999802  56.98999786
C    18.45000076  32.52000046  57.22000122
C    19.52000046  32.36999893  56.27999878
C    20.79999924  32.70999908  56.63999939
C    21.14000130  33.45000076  57.80000305
C    20.13000107  33.68000031  58.69999695
C    18.82999992  33.15000153  58.46000290
C    14.70999908  32.06000137  57.90000153
C    14.01999950  32.52999878  59.03999710
C    12.63000011  32.47999954  59.18000031
C    22.56000137  33.88000107  58.09999847
H    22.97247314  33.51019669  59.03872681
H    17.90999985  33.87000275  60.38000107
H    16.86000061  31.52000046  56.10000229
H    19.32999992  31.86000061  55.34000015
H    21.61000061  32.59999847  55.91999817
H    20.06999969  34.27000046  59.61000061
H    12.20000076  32.38999939  60.17000198
H    23.11000061  33.48999786  57.22999954
H    22.67000008  34.97999954  58.11000061
S    11.46000004  31.09000015  55.59999847
C     8.82999992  30.79999924  56.56000137
C    10.11999989  31.22999954  56.76000214
C    10.50000000  31.70000076  58.04999924
C     9.61000061  31.86000061  59.09999847
C     8.23000050  31.68999863  58.81000137
C     7.25000000  31.87999916  59.82999802
C     5.96000004  31.47000122  59.61000061
C     5.59000015  30.79999924  58.41999817
C     6.53999996  30.59999847  57.44999695
C     7.86999989  31.09999847  57.55000305
C    11.92000008  32.02000046  58.06000137
C    12.56999969  31.70999908  56.84000015
C    13.96000004  31.61999893  56.79999924
C     4.18000031  30.26000023  58.30999756
H     3.63684154  30.62448692  57.43808746
H     8.51000023  30.39999962  55.59999847
H     9.94999981  32.22999954  60.06000137
H     7.55000019  32.18000031  60.83000183
H     5.21000004  31.55999947  60.40000153
H     6.26999950  30.03000069  56.56000137
H    14.50000000  31.25999832  55.93000031
H     3.61999989  30.56999969  59.20000076
H     4.32999992  29.18000031  58.29000092
S    15.57000065  33.31999969  54.27999878
C    18.22000122  33.75999832  53.34000015
C    16.93000031  33.31999969  53.13999939
C    16.56999969  32.79000092  51.86000061
C    17.51000023  32.66999817  50.84999847
C    18.82999992  33.11999893  51.07999802
C    19.82999992  33.18999863  50.06999969
C    21.15999985  33.45999908  50.26000214
C    21.51000023  33.87000275  51.58000183
C    20.59999847  33.95999908  52.60000229
C    19.25000000  33.55999756  52.38999939
C    15.14000034  32.56999969  51.77000046
C    14.46000004  32.84000015  52.97999954
C    13.09000015  32.80999756  53.18999863
C    22.85000038  34.52999878  51.79999924
H    23.34342766  34.00081635  52.61522675
H    18.42000008  34.15999985  54.33000183
H    17.07999992  32.50000000  49.86000061
H    19.38999939  32.81999969  49.13999939
H    21.84000015  33.59999847  49.43000031
H    20.86000061  34.45000076  53.53000259
H    12.61999989  32.93000031  54.15999985
H    23.42000008  34.29000092  50.89000320
H    22.79000092  35.63000107  51.90000153
S    11.78999996  31.70999908  49.59999847
C     9.15999985  31.35000038  50.51000214
C    10.46000004  31.70999908  50.77999878
C    10.82999992  32.36999893  51.98999786
C     9.86999989  32.65999985  52.94000244
C     8.56999969  32.14999771  52.76000214
C     7.59999990  32.23999786  53.81000137
C     6.30000019  31.87999916  53.57999802
C     5.92000008  31.30000114  52.34000397
C     6.86999989  30.97999954  51.39999771
C     8.19000053  31.50000000  51.53999710
C    12.28000069  32.56999969  52.06999969
C    12.92000008  32.30999756  50.83000183
C    14.29999924  32.21999741  50.70000076
C     4.48999977  30.81999969  52.18999863
H     4.04759073  31.34090042  51.34085846
H     8.85000038  30.95999908  49.54000092
H    10.15999985  33.11000061  53.88999939
H     7.83999968  32.69000244  54.77000427
H     5.55000019  31.77000046  54.36000061
H     6.71000004  30.38000107  50.50000000
H    14.72000027  32.04999924  49.72000122
H     3.98000002  30.79000092  53.15999985
H     4.44999981  29.77000046  51.86999893
