96

S    15.07999992  32.83000183  60.24000168
C    17.71999931  33.34000015  59.43999863
C    16.43000031  33.02999878  59.09999847
C    15.98000050  32.70000076  57.77999878
C    16.90999985  32.78000259  56.75000000
C    18.27000046  32.99000168  57.04000092
C    19.34999847  32.84000015  56.11999893
C    20.68000031  32.99000168  56.42000198
C    21.01000023  33.51000214  57.70000076
C    20.03000069  33.65000153  58.64999771
C    18.67000008  33.29999924  58.39000320
C    14.55999947  32.36000061  57.75000000
C    13.86999989  32.52999878  58.97999573
C    12.50000000  32.34999847  59.09999847
C    22.37999916  34.05999756  58.02999878
H    22.73685074  33.66032791  58.97922134
H    18.05999947  33.62999725  60.43000031
H    16.53000069  32.34999847  55.83000183
H    19.11000061  32.56999969  55.10000229
H    21.50000000  32.97999954  55.70000076
H    20.23999977  34.11999893  59.61000061
H    12.03999996  32.50999832  60.06999969
H    23.09000015  33.74000168  57.25000000
H    22.46000099  35.15999985  58.01000214
S    11.23000050  31.01000023  55.58000183
C     8.56000042  30.75000000  56.62000275
C     9.88000011  31.14000130  56.72000122
C    10.34000015  31.67000008  57.97000122
C     9.47000027  31.84000015  59.02999878
C     8.19000053  31.21999931  58.99000168
C     7.35000038  31.11999893  60.13999939
C     6.11000013  30.53999901  60.06999969
C     5.64000034  29.97999954  58.85000229
C     6.43000031  30.10000038  57.72999573
C     7.67000008  30.81000137  57.71999741
C    11.77000046  31.94999886  57.97999954
C    12.42000008  31.60000038  56.77000046
C    13.76999950  31.87999916  56.69000244
C     4.21999979  29.51999855  58.66000366
H     3.81462359  29.94671249  57.74256897
H     8.14000034  30.38999939  55.68000031
H     9.85000038  32.14999771  59.99000168
H     7.65999985  31.42999840  61.12999725
H     5.46000004  30.50000000  60.93999863
H     6.21000004  29.59000015  56.79000092
H    14.28999996  31.75000000  55.75000000
H     3.58000016  29.79000092  59.51000214
H     4.21999979  28.43000031  58.50000000
S    15.32999992  33.74000168  53.82999802
C    17.93000031  33.81000137  52.93000031
C    16.63999939  33.36999893  52.70000076
C    16.18999863  32.70000076  51.52000046
C    17.10000038  32.52999878  50.50000000
C    18.39999962  33.06000137  50.63000107
C    19.40999985  32.97999954  49.62999725
C    20.66999817  33.45999908  49.87999725
C    21.04000092  34.18000031  51.04000092
C    20.05000114  34.43999863  51.97000122
C    18.79999924  33.77000046  51.81999969
C    14.73000050  32.63000107  51.52999878
C    14.09999943  33.15999985  52.69000244
C    12.72999954  32.99000168  52.87000275
C    22.46999931  34.63000107  51.26999664
H    22.98433876  34.10852051  52.07722092
H    18.23999977  34.34999847  53.81999969
H    16.82999992  32.02999878  49.56999969
H    19.29000092  32.36999893  48.73000336
H    21.42999840  33.40999985  49.09999847
H    20.26000023  35.09000015  52.81000137
H    12.38000011  33.31000137  53.85000229
H    23.00000000  34.54999924  50.31000137
H    22.37999916  35.63999939  51.68000031
S    11.38000011  31.51000023  49.45999908
C     8.75000000  31.18000031  50.35999680
C    10.00000000  31.70000076  50.56999969
C    10.46000004  32.20000076  51.83000183
C     9.53999996  32.18000031  52.85999680
C     8.22000027  31.70999908  52.69000244
C     7.23999977  31.70000076  53.72000122
C     6.01999998  31.05999947  53.62999725
C     5.64000034  30.52000046  52.37999725
C     6.56000042  30.48999977  51.35000229
C     7.82999992  31.12999916  51.43000031
C    11.89000034  32.50000000  51.86000061
C    12.53999901  32.00000000  50.70999908
C    13.92000008  32.04000092  50.54999924
C     4.21000004  30.13000107  52.09000015
H     3.83224082  30.72158432  51.25607681
H     8.46000004  30.72999954  49.40999985
H     9.82999992  32.50000000  53.86000061
H     7.46000004  32.23999786  54.64000320
H     5.26999998  31.11000061  54.41999817
H     6.25000000  30.13999939  50.37000275
H    14.35999966  31.48999977  49.72999954
H     3.53999996  30.27000046  52.95000076
H     4.23999977  29.05999947  51.83000183
