96

S    15.67999935  32.79999924  60.31999969
C    18.30999947  33.02999878  59.36000061
C    17.02999878  32.54000092  59.20000076
C    16.61999893  31.97999954  57.95000076
C    17.46000099  31.90999985  56.84999847
C    18.81999969  32.27000046  57.01000214
C    19.81999969  32.27999878  56.00000000
C    21.09000015  32.78000259  56.17000198
C    21.47999954  33.34999847  57.41000366
C    20.53999901  33.29000092  58.40999985
C    19.19999886  32.81999969  58.27999878
C    15.17000008  31.84999847  57.84000015
C    14.55999947  32.34999847  59.02000046
C    13.17999935  32.33000183  59.18000031
C    22.84000015  33.95999908  57.64999771
H    23.46758461  33.27536011  58.22053146
H    18.59000015  33.61999893  60.22999573
H    17.04000092  31.68999863  55.86999893
H    19.47999954  31.93000031  55.02999878
H    21.84000015  32.72999954  55.38000107
H    20.69000053  33.77000046  59.36999893
H    12.74000072  32.72999954  60.08999634
H    23.38999939  34.24000168  56.75000000
H    22.67000008  34.90000153  58.20999908
S    11.73999977  31.09999847  55.68999863
C     9.17000008  30.72000122  56.70000076
C    10.44000053  31.21000099  56.88999939
C    10.92000008  31.63000107  58.18000031
C     9.96999931  31.80999947  59.16999817
C     8.64999962  31.32999802  59.01000214
C     7.63000011  31.54999924  59.98000336
C     6.35999966  31.02999878  59.85000229
C     6.00000000  30.25000000  58.72000122
C     6.94000006  30.15000153  57.71999741
C     8.26000023  30.66999817  57.78999710
C    12.35999966  31.87000084  58.15000153
C    12.94999981  31.45999908  56.93000031
C    14.34000015  31.40999985  56.81000137
C     4.67000008  29.54999924  58.57999802
H     4.04566717  30.03243828  57.82796097
H     8.76999950  30.22999954  55.81999969
H    10.22999954  32.29000092  60.11000061
H     7.92999983  32.02999878  60.90999985
H     5.64000034  31.15999985  60.65000153
H     6.63999987  29.59000015  56.84000015
H    14.84000015  31.25999832  55.86000061
H     4.07000017  29.47999954  59.48999786
H     4.88000011  28.54999924  58.16999817
S    15.36999893  33.36000061  54.27999878
C    17.97999954  33.84000015  53.27999878
C    16.72000122  33.31999969  53.11999893
C    16.34000015  32.73999786  51.86999893
C    17.28999901  32.57999802  50.87999725
C    18.60999870  33.04999924  51.05999756
C    19.60000038  33.01000214  50.02999878
C    20.82999992  33.56999969  50.24000168
C    21.17000198  34.25000000  51.44000244
C    20.19000053  34.47999954  52.37999725
C    18.95000076  33.79000092  52.23999786
C    14.88999939  32.57999802  51.79999924
C    14.22000027  32.93000031  53.00000000
C    12.84000015  32.79999924  53.15000153
C    22.46999931  34.99000168  51.62000275
H    23.13164711  34.40661621  52.26030350
H    18.25000000  34.31999969  54.20999908
H    16.95000076  32.21999741  49.91000366
H    19.47999954  32.47999954  49.09000015
H    21.56999969  33.56999969  49.43999863
H    20.38000107  35.05000305  53.29000092
H    12.35000038  33.15999985  54.05000305
H    22.92000008  35.15000153  50.63000107
H    22.27000046  35.95999908  52.09000015
S    11.57999992  31.65999985  49.56999969
C     8.89999962  31.25000000  50.45999908
C    10.19999981  31.67000008  50.68999863
C    10.64000034  32.02000046  52.00000000
C     9.70000076  32.06000137  53.01000214
C     8.34999943  31.68000031  52.80000305
C     7.44000006  31.53000069  53.88000107
C     6.21000004  30.93000031  53.70999908
C     5.86999989  30.52999878  52.38999939
C     6.63999987  30.69999886  51.25999832
C     7.95000029  31.19999886  51.51000214
C    12.07999992  32.21999741  52.12999725
C    12.71999931  32.04000092  50.87999725
C    14.09000015  32.22999954  50.70999908
C     4.46999979  29.99000168  52.16999817
H     3.97752571  30.55384827  51.37775803
H     8.60999966  30.98999977  49.45000076
H     9.96999931  32.29999924  54.02999878
H     7.82999992  31.88999939  54.82999802
H     5.49000025  30.79999924  54.51000214
H     6.28999996  30.55999947  50.24000168
H    14.52999973  32.06999969  49.72999954
H     3.86999989  29.89999962  53.08000183
H     4.61999989  28.95999908  51.81999969
