96

S    15.52999973  33.13999939  60.44000244
C    18.15999985  33.50000000  59.38000107
C    16.86000061  33.04999924  59.27999878
C    16.48999977  32.37999725  58.08000183
C    17.43999863  32.02000046  57.14000320
C    18.79999924  32.40999985  57.27000427
C    19.77000046  32.20000076  56.25000000
C    20.96999931  32.86000061  56.32999802
C    21.40000153  33.38999939  57.56999969
C    20.52000046  33.56999969  58.61000061
C    19.15999985  33.15999985  58.43999863
C    15.05000019  32.16999817  58.01000214
C    14.40000057  32.50000000  59.22999954
C    13.02000046  32.38999939  59.31999969
C    22.79999924  33.95999908  57.69000244
H    23.36904716  33.46919632  58.47955704
H    18.55999947  33.93000031  60.28999710
H    17.09000015  31.68999863  56.17000198
H    19.55000114  31.71999931  55.30000305
H    21.59000015  32.76000214  55.44000244
H    20.90999985  34.04999924  59.50000000
H    12.56000042  32.72000122  60.25000000
H    23.29999924  33.70999908  56.73999786
H    22.70999908  35.04000092  57.85999680
S    11.79999924  31.11000061  55.77000046
C     9.11999989  30.94000053  56.59000015
C    10.42000008  31.32999802  56.86000061
C    10.80000019  31.84999847  58.13999939
C     9.89000034  31.88999939  59.18000031
C     8.53999996  31.60000038  58.88999939
C     7.55999994  31.67000008  59.92000198
C     6.24000025  31.32999802  59.73999786
C     5.84000015  30.85000038  58.47000122
C     6.76000023  30.81999969  57.43000031
C     8.14000034  31.09000015  57.60000229
C    12.23999977  32.02999878  58.20999908
C    12.89999962  31.80999947  56.97000122
C    14.28999996  31.83000183  56.88999939
C     4.53000021  30.13000107  58.29000092
H     3.93270230  30.69174385  57.57182312
H     8.85000038  30.52000046  55.61999893
H    10.21999931  32.14999771  60.18000031
H     7.82999992  31.93000031  60.93999863
H     5.51000023  31.44000053  60.54000092
H     6.39999962  30.45000076  56.47999573
H    14.84000015  31.59000015  55.98999786
H     3.95000005  30.10999870  59.22000122
H     4.79999971  29.11999893  57.97000122
S    16.01000023  33.20000076  54.09999847
C    18.64999962  33.61000061  53.22999954
C    17.35999870  33.22000122  52.95000076
C    16.90999985  32.78000259  51.65999985
C    17.79999924  32.76000214  50.59999847
C    19.15999985  33.02999878  50.87999725
C    20.12000084  32.79999924  49.85000229
C    21.42000008  33.20000076  50.00999832
C    21.84000015  33.63999939  51.29000092
C    20.95000076  33.87000275  52.30999756
C    19.56999969  33.52999878  52.15999985
C    15.48999977  32.45999908  51.68000031
C    14.80999947  32.65999985  52.90999985
C    13.43000031  32.59999847  53.04000092
C    23.29000092  34.05999756  51.42000198
H    23.65937996  33.78296661  52.40737915
H    18.92000008  34.18999863  54.10999680
H    17.40999985  32.49000168  49.61999893
H    19.81999969  32.43000031  48.87000275
H    22.06999969  33.38999939  49.15000153
H    21.18999863  34.38999939  53.22999954
H    12.97999954  32.97999954  53.95000076
H    23.88000107  33.52000046  50.68000031
H    23.52000046  35.12000275  51.25000000
S    12.25000000  31.24000168  49.51000214
C     9.56999969  31.18000031  50.27000046
C    10.88000107  31.44000053  50.59999847
C    11.21999931  32.09999847  51.83000183
C    10.26000023  32.36000061  52.78999710
C     8.93999958  31.94000053  52.52999878
C     7.92000008  32.00999832  53.52000427
C     6.67000008  31.47999954  53.29999924
C     6.35999966  30.81000137  52.09000015
C     7.30999994  30.71000099  51.10000229
C     8.56999969  31.32999802  51.27999878
C    12.67000008  32.21999741  51.91999817
C    13.35000038  31.94999886  50.70999908
C    14.73999977  31.96000099  50.61999893
C     5.07999992  30.00999832  51.93999863
H     4.31424332  30.63394928  51.47912979
H     9.35000038  30.75000000  49.29999924
H    10.57000065  32.85000229  53.70999908
H     8.13000011  32.59000015  54.41999817
H     5.98000002  31.50000000  54.13000107
H     7.13000011  30.15999985  50.17000198
H    15.14000034  31.76000214  49.61999893
H     4.75000000  29.70999908  52.94000244
H     5.29999971  29.03000069  51.49000168
