96

S    14.88999939  33.15999985  60.27000046
C    17.43999863  33.68000031  59.36000061
C    16.18999863  33.16999817  59.06999969
C    15.77000046  32.72000122  57.77999878
C    16.70999908  32.84000015  56.77000046
C    18.00000000  33.36999893  57.00000000
C    19.05999947  33.36000061  56.04000092
C    20.36000061  33.72000122  56.31000137
C    20.62999916  34.31999969  57.56999969
C    19.68000031  34.33000183  58.56999969
C    18.36000061  33.87000275  58.29999924
C    14.37000084  32.36000061  57.72999573
C    13.78000069  32.62000275  58.99000168
C    12.39999962  32.70000076  59.13999939
C    22.04999924  34.73999786  57.88000107
H    22.62703514  34.00624084  58.44278717
H    17.64999962  33.97000122  60.38000107
H    16.42000008  32.38999939  55.81999969
H    18.81999969  32.78000259  55.14999771
H    21.11000061  33.43000031  55.58000183
H    19.93999863  34.59000015  59.59000015
H    12.02000046  32.95000076  60.12000275
H    22.60999870  34.93000031  56.95999908
H    21.87000084  35.65000153  58.47000122
S    10.97000027  31.90000153  55.48999786
C     8.46000004  31.18999863  56.45000076
C     9.64999962  31.83000183  56.66999817
C    10.10000038  32.20999908  57.97999954
C     9.13000011  32.25000000  58.95999908
C     7.78999996  31.88999939  58.70999908
C     6.78999996  31.87999916  59.72999954
C     5.58000040  31.27000046  59.51000214
C     5.27999973  30.72000122  58.22999954
C     6.15999985  30.76999855  57.16999817
C     7.44000006  31.32999802  57.43000031
C    11.54000092  32.38999939  58.06999969
C    12.13000107  32.14999771  56.81000137
C    13.50999928  32.11999893  56.65000153
C     3.93000007  30.07999802  58.01000214
H     3.37988567  30.70870018  57.30985260
H     8.25000000  30.65000153  55.52999878
H     9.40999985  32.52000046  59.98000336
H     7.11000013  32.16999817  60.72999954
H     4.94000006  31.17000198  60.37000275
H     6.00000000  30.28000069  56.20999908
H    14.00000000  32.19000244  55.68000031
H     3.45000005  29.96999931  58.99000168
H     3.95000005  29.07999992  57.56000137
S    14.81999969  33.84000015  53.76999664
C    17.45000076  33.95000076  52.95999908
C    16.15999985  33.59000015  52.63999939
C    15.75000000  33.16999817  51.33999634
C    16.72999954  32.97999954  50.38000107
C    18.07999992  33.32999802  50.63000107
C    19.11999893  33.25000000  49.66999817
C    20.38000107  33.69999695  49.97000122
C    20.68000031  34.36999893  51.18999863
C    19.69000053  34.47000122  52.12999725
C    18.42000008  33.87000275  51.91999817
C    14.29999924  33.01000214  51.31000137
C    13.64999962  33.41999817  52.50000000
C    12.27000046  33.51000214  52.60000229
C    22.01000023  34.97999954  51.56999969
H    22.61534882  34.33904266  52.21095657
H    17.75000000  34.50000000  53.85000229
H    16.56999969  32.52999878  49.40999985
H    18.85000038  32.79000092  48.72000122
H    21.09000015  33.77000046  49.13999939
H    19.78000069  35.02999878  53.06000137
H    11.77000046  33.61999893  53.55999756
H    22.60000038  35.33000183  50.70999908
H    21.68000031  35.90999985  52.04999924
S    11.00999928  32.06999969  49.13000107
C     8.36999989  31.84000015  49.98000336
C     9.65999985  32.21999741  50.27000046
C    10.06999969  32.75000000  51.53999710
C     9.11999989  32.97000122  52.52999878
C     7.82000017  32.43999863  52.35000229
C     6.86999989  32.44999695  53.40000153
C     5.65000010  31.81999969  53.26000214
C     5.26999998  31.30000114  52.00000000
C     6.15000010  31.35000038  50.93999863
C     7.44999981  31.91999817  51.05999756
C    11.50000000  33.00000000  51.53999710
C    12.18000031  32.56999969  50.37000275
C    13.55999947  32.52999878  50.21999741
C     3.84000015  30.81999969  51.81999969
H     3.32568431  31.53432655  51.17710495
H     8.09000015  31.25000000  49.12000275
H     9.31999969  33.46999741  53.47000122
H     7.09000015  33.04999924  54.27999878
H     4.97000027  31.94000053  54.09999847
H     5.88000011  31.04999924  49.93000031
H    14.04000092  32.20999908  49.29999924
H     3.32999992  30.66999817  52.77999878
H     3.81999993  29.86999893  51.26999664
