96

S    15.67999935  32.79999924  60.31999969
C    18.30999947  33.02999878  59.36000061
C    17.02999878  32.54000092  59.20000076
C    16.61999893  31.97999954  57.95000076
C    17.46000099  31.90999985  56.84999847
C    18.81999969  32.27000046  57.01000214
C    19.81999969  32.27999878  56.00000000
C    21.09000015  32.78000259  56.17000198
C    21.47999954  33.34999847  57.41000366
C    20.53999901  33.29000092  58.40999985
C    19.19999886  32.81999969  58.27999878
C    15.17000008  31.84999847  57.84000015
C    14.55999947  32.34999847  59.02000046
C    13.17999935  32.33000183  59.18000031
C    22.84000015  33.95999908  57.64999771
H    23.46758461  33.27536011  58.22053146
H    18.59000015  33.61999893  60.22999573
H    17.04000092  31.68999863  55.86999893
H    19.47999954  31.93000031  55.02999878
H    21.84000015  32.72999954  55.38000107
H    20.69000053  33.77000046  59.36999893
H    12.74000072  32.72999954  60.08999634
H    23.38999939  34.24000168  56.75000000
H    22.67000008  34.90000153  58.20999908
S    11.73999977  31.09999847  55.68999863
C     9.17000008  30.72000122  56.70000076
C    10.44000053  31.21000099  56.88999939
C    10.92000008  31.63000107  58.18000031
C     9.96999931  31.80999947  59.16999817
C     8.64999962  31.32999802  59.01000214
C     7.63000011  31.54999924  59.98000336
C     6.35999966  31.02999878  59.85000229
C     6.00000000  30.25000000  58.72000122
C     6.94000006  30.15000153  57.71999741
C     8.26000023  30.66999817  57.78999710
C    12.35999966  31.87000084  58.15000153
C    12.94999981  31.45999908  56.93000031
C    14.34000015  31.40999985  56.81000137
C     4.67000008  29.54999924  58.57999802
H     4.04566717  30.03243828  57.82796097
H     8.76999950  30.22999954  55.81999969
H    10.22999954  32.29000092  60.11000061
H     7.92999983  32.02999878  60.90999985
H     5.64000034  31.15999985  60.65000153
H     6.63999987  29.59000015  56.84000015
H    14.84000015  31.25999832  55.86000061
H     4.07000017  29.47999954  59.48999786
H     4.88000011  28.54999924  58.16999817
S    12.10999966  28.97999954  52.76000214
C     9.57999992  27.98000145  53.54999924
C    10.93000031  28.12999916  53.77999878
C    11.51999950  27.56000137  54.94999695
C    10.76000023  26.81999969  55.84000015
C     9.35000038  26.77999878  55.70999908
C     8.43999958  26.19999886  56.63000107
C     7.07000017  26.34000015  56.58000183
C     6.53999996  26.94999886  55.40999985
C     7.36000013  27.46999931  54.43999863
C     8.76999950  27.32000160  54.51000214
C    12.94999981  27.85000038  55.05000305
C    13.36999989  28.68000031  53.96999741
C    14.65000057  29.18999863  53.79000092
C     5.05000019  27.20000076  55.40000153
H     4.58152199  26.77411079  54.51273346
H     9.09000015  28.52999878  52.74000168
H    11.21000099  26.27000046  56.65999985
H     8.84000015  25.65999985  57.48000336
H     6.51999998  25.95000076  57.43000031
H     6.94000006  28.15000153  53.69999695
H    14.81999969  29.79999924  52.90999985
H     4.57999992  26.81999969  56.31000137
H     4.88999987  28.28000069  55.37000275
S    16.43000031  27.65999985  57.02000046
C    19.01000023  28.48999977  56.20999908
C    17.64999962  28.45000076  56.00000000
C    17.05999947  28.98999977  54.80999756
C    17.80999947  29.75000000  53.94000244
C    19.22000122  29.70000076  54.02000046
C    20.02000046  30.28000069  53.00000000
C    21.38999939  30.31999969  53.15999985
C    21.97000122  29.77999878  54.34000015
C    21.21000099  29.17000008  55.31000137
C    19.79999924  29.09000015  55.19000244
C    15.62000084  28.78999901  54.72000122
C    15.17000008  28.03999901  55.83000183
C    13.88000011  27.59000015  56.05999756
C    23.46999931  29.63999939  54.52999878
H    23.81236267  29.67566299  55.56422043
H    19.45999908  27.89999962  57.00000000
H    17.38999939  30.29000092  53.09000015
H    19.55999947  30.76999855  52.15000153
H    21.90000153  30.79999924  52.32999802
H    21.64999962  28.75999832  56.22000122
H    13.71999931  26.90999985  56.88999939
H    23.90999985  30.45000076  53.94000244
H    23.85999870  28.71000099  54.09000015
