96

S    14.47000027  33.29000092  60.31999969
C    17.11000061  33.55999756  59.45000076
C    15.82999992  33.15000153  59.19000244
C    15.42000008  32.65999985  57.90999985
C    16.36000061  32.50000000  56.90999985
C    17.72999954  32.79999924  57.15000153
C    18.78999901  32.68000031  56.19999695
C    20.07999802  33.08000183  56.42000198
C    20.29000092  33.86000061  57.58999634
C    19.37000084  33.91999817  58.61000061
C    18.06999969  33.36000061  58.43000031
C    14.00000000  32.34000015  57.90999985
C    13.32999992  32.62000275  59.13999939
C    11.96000004  32.49000168  59.27999878
C    21.67000008  34.38000107  57.93000031
H    22.16720772  33.66970444  58.59057617
H    17.30999947  34.13000107  60.35999680
H    16.05999947  32.15999985  55.91999817
H    18.45000076  32.23999786  55.27000046
H    20.85000038  32.88999939  55.66999817
H    19.64999962  34.38999939  59.54999924
H    11.54999924  32.75000000  60.25000000
H    22.14999962  34.43000031  56.95000076
H    21.70000076  35.40000153  58.33000183
S    10.70000076  31.45999908  55.68999863
C     8.05999947  31.07000160  56.55000305
C     9.31999969  31.54999924  56.81000137
C     9.72000027  31.97000122  58.11999893
C     8.76999950  32.06000137  59.12000275
C     7.46999979  31.54999924  58.92000198
C     6.54999971  31.40000153  60.00000000
C     5.28999996  30.86999893  59.79999924
C     4.96000004  30.31999969  58.53000259
C     5.88000011  30.36999893  57.50999832
C     7.13000011  31.04999924  57.61000061
C    11.17000008  32.13999939  58.18000031
C    11.85999966  31.84999847  56.97999954
C    13.23999977  31.88999939  56.81999969
C     3.56999993  29.80999947  58.22000122
H     3.09972358  30.39428139  57.42908096
H     7.72000027  30.53999901  55.65999985
H     9.04999924  32.31999969  60.13000107
H     6.91999960  31.77999878  60.93999863
H     4.51999998  31.09000015  60.52999878
H     5.69000006  29.93999863  56.52999878
H    13.61999989  31.76000214  55.80999756
H     3.09999990  30.10999870  59.15999985
H     3.53999996  28.71999931  58.09999847
S    14.18000031  34.10000229  53.82999802
C    16.87999916  34.01000214  53.04999924
C    15.55999947  33.72999954  52.77000046
C    15.19999981  33.18000031  51.50000000
C    16.18999863  32.93000031  50.56000137
C    17.54999924  33.25000000  50.77999878
C    18.64999962  32.99000168  49.91000366
C    19.93000031  33.36999893  50.24000168
C    20.22000122  34.11000061  51.42000198
C    19.19000053  34.31000137  52.30999756
C    17.86999893  33.87000275  52.04000092
C    13.75000000  33.09000015  51.36000061
C    13.09999943  33.65000153  52.49000168
C    11.72999954  33.63999939  52.68000031
C    21.57999992  34.69000244  51.75000000
H    22.04239082  34.17070007  52.58941650
H    17.17000008  34.52999878  53.95000076
H    15.93999958  32.52000046  49.59000015
H    18.55999947  32.65999985  48.88000107
H    20.71000099  33.13999939  49.52000046
H    19.40999985  34.94999695  53.15999985
H    11.31000042  33.81999969  53.67000198
H    22.22999954  34.59999847  50.86999893
H    21.51000023  35.77000046  51.93999863
S    10.46000004  32.20000076  49.20999908
C     7.97999954  31.53000069  50.15999603
C     9.19000053  32.09999847  50.44000244
C     9.56999969  32.62000275  51.72999954
C     8.65999985  32.55000305  52.77000046
C     7.31999969  32.14999771  52.54000092
C     6.44000006  32.04999924  53.64999771
C     5.14999962  31.64999962  53.39000320
C     4.76999998  31.31999969  52.05999756
C     5.69999981  31.21000099  51.04999924
C     7.04999971  31.63000107  51.23000336
C    10.93999958  33.09999847  51.65999985
C    11.59000015  32.77000046  50.45000076
C    12.97000027  32.83000183  50.22999573
C     3.38999987  30.89999962  51.63000107
H     2.99214077  31.61756706  50.91243362
H     7.72000027  31.28999901  49.13000107
H     9.01000023  32.79999924  53.76999664
H     6.78999996  32.34000015  54.64000320
H     4.39000034  31.61999893  54.16999817
H     5.44000053  30.89999962  50.05000305
H    13.32999992  32.65000153  49.22000122
H     2.76999998  30.84000015  52.54000092
H     3.40999985  29.86999893  51.27999878
