96

S    15.38000011  32.62000275  60.65000153
C    18.04000092  33.09000015  60.00000000
C    16.79999924  32.65000153  59.59000015
C    16.50000000  32.29999924  58.23999786
C    17.51000023  32.34000015  57.29000092
C    18.82999992  32.70000076  57.67000198
C    19.93000031  32.73999786  56.77000046
C    21.19999886  33.13999939  57.11999893
C    21.42999840  33.36000061  58.50999832
C    20.43999863  33.20999908  59.45000076
C    19.09000015  32.97999954  59.05000305
C    15.07999992  32.02000046  58.09999847
C    14.32000065  32.25000000  59.27000046
C    12.94000053  32.13999939  59.33000183
C    22.78000069  33.90999985  58.89999771
H    23.36462021  33.16139984  59.43471527
H    18.27000046  33.44000244  61.00000000
H    17.30999947  32.40000153  56.22000122
H    19.73999977  32.56999969  55.70999908
H    21.94000053  33.46999741  56.40999603
H    20.65999985  33.54000092  60.45999908
H    12.34000015  32.22999954  60.22999573
H    23.29999924  34.17000198  57.97000122
H    22.57999802  34.83000183  59.45999908
S    11.77999973  31.25000000  55.70999908
C     9.10000038  30.92000008  56.52999878
C    10.36999893  31.40000153  56.77000046
C    10.78999996  31.80999947  58.08000183
C     9.82999992  31.98999786  59.06000137
C     8.52999973  31.47000122  58.92000198
C     7.55999994  31.32999802  59.95999908
C     6.30000019  30.82999992  59.75000000
C     5.91000032  30.36000061  58.47000122
C     6.88000011  30.40999985  57.50000000
C     8.19999981  30.92000008  57.63000107
C    12.23999977  31.91999817  58.13000107
C    12.98999977  31.60000038  56.97000122
C    14.37999916  31.56999969  56.97999954
C     4.53000021  29.77999878  58.29000092
H     4.06120396  30.40506172  57.52998352
H     8.80999947  30.56999969  55.54999924
H    10.11999989  32.20999908  60.07999802
H     7.75000000  31.63999939  60.98999786
H     5.55999994  30.85000038  60.54999924
H     6.57000017  30.06000137  56.52000046
H    14.91000080  31.38000107  56.04999924
H     3.86000013  29.76000023  59.15999985
H     4.55000019  28.71999931  58.00000000
S    15.52999973  33.47999954  54.09999847
C    18.20000076  33.80000305  53.37999725
C    16.94000053  33.36999893  53.02999878
C    16.57999992  32.86000061  51.73999786
C    17.53999901  32.80999756  50.75000000
C    18.86999893  33.22000122  51.04999924
C    19.92000008  33.27999878  50.08999634
C    21.18999863  33.72000122  50.40000153
C    21.50000000  34.13999939  51.70999908
C    20.48999977  34.17000198  52.64999771
C    19.17000008  33.75000000  52.35000229
C    15.13000011  32.69000244  51.60999680
C    14.42000008  33.06999969  52.77999878
C    13.04999924  33.02000046  52.97999954
C    22.86999893  34.70000076  52.01000214
H    23.28128433  34.28871536  52.93184280
H    18.40999985  34.17000198  54.38000107
H    17.18000031  32.47999954  49.79000092
H    19.63000107  32.95999908  49.09000015
H    21.86000061  33.72000122  49.54999924
H    20.71000099  34.40999985  53.68999863
H    12.56999969  33.16999817  53.94000244
H    23.43000031  34.59999847  51.06999969
H    22.69000053  35.75999832  52.18999863
S    11.89000034  31.77000046  49.36999893
C     9.23999977  31.42999840  50.24000168
C    10.51000023  31.91999817  50.47000122
C    10.86999989  32.43000031  51.75000000
C     9.89000034  32.45999908  52.72999573
C     8.56000042  32.02999878  52.50999832
C     7.50000000  32.20999908  53.43999863
C     6.25999975  31.63000107  53.27000046
C     6.03999996  30.94000053  52.04999924
C     6.97000027  30.85000038  51.04000092
C     8.22000027  31.51000023  51.20999908
C    12.30999947  32.61000061  51.86000061
C    13.00000000  32.26000214  50.66999817
C    14.37999916  32.25000000  50.52000046
C     4.63999987  30.38999939  51.84000015
H     4.08549643  30.95872116  51.09355545
H     9.02000046  31.05999947  49.23999786
H    10.11999989  32.86000061  53.70999908
H     7.90000010  32.86000061  54.22000122
H     5.49000025  31.81999969  54.02000046
H     6.67999983  30.36000061  50.12000275
H    14.78999996  31.94000053  49.55999756
H     4.07999992  30.39999962  52.77999878
H     4.72000027  29.34000015  51.55000305
