96

S    15.80000019  33.02000046  60.28999710
C    18.44000053  33.13999939  59.45999908
C    17.14999962  32.76000214  59.16999817
C    16.73999977  32.19000244  57.91999817
C    17.64999962  32.20000076  56.86999893
C    18.96999931  32.63999939  57.14000320
C    20.00999832  32.77000046  56.18000031
C    21.28999901  33.22000122  56.40999603
C    21.68999863  33.51000214  57.75000000
C    20.75000000  33.43000031  58.75999832
C    19.42000008  33.02999878  58.43999863
C    15.29999924  32.00999832  57.93000031
C    14.61999989  32.42000198  59.10999680
C    13.23999977  32.50000000  59.29000092
C    23.13999939  33.86000061  57.97000122
H    23.58912086  33.16849518  58.68288803
H    18.73999977  33.62999725  60.38000107
H    17.29999924  31.78999901  55.93000031
H    19.78999901  32.37999725  55.19000244
H    22.11999893  33.11999893  55.72000122
H    20.94000053  33.72999954  59.78000259
H    12.84999943  32.75000000  60.27000046
H    23.71000099  33.84000015  57.02999878
H    23.13999939  34.88999939  58.36000061
S    12.01000023  31.01000023  55.77999878
C     9.38000011  30.68000031  56.72999954
C    10.64000034  31.19999886  56.90000153
C    11.06999969  31.83000183  58.11000061
C    10.08999920  32.06000137  59.06000137
C     8.76000023  31.61999893  58.86000061
C     7.76000023  31.91999817  59.81999969
C     6.47000027  31.47999954  59.65999985
C     6.09000015  30.69000053  58.54999924
C     7.02000046  30.42000008  57.56000137
C     8.36999989  30.81999969  57.71999741
C    12.50000000  32.09000015  58.18000031
C    13.14000034  31.61000061  57.01000214
C    14.52000046  31.60000038  56.84000015
C     4.71000004  30.09000015  58.47000122
H     4.33529711  30.19604874  57.45193863
H     9.04999924  30.10000038  55.86999893
H    10.24000072  32.54000092  60.02999878
H     8.01999950  32.36999893  60.77000046
H     5.75999975  31.70999908  60.45999908
H     6.67999983  29.87999916  56.68000031
H    15.13000011  31.27000046  56.00000000
H     3.94000006  30.42000008  59.16999817
H     4.79999971  29.00000000  58.59000397
S    11.59999943  28.68999863  52.67000198
C     9.02999973  28.12000084  53.57999802
C    10.39000034  28.08000183  53.81999969
C    10.93000031  27.72999954  55.08999634
C    10.07999992  27.27999878  56.07999802
C     8.67999935  27.27999878  55.90999985
C     7.76999998  26.83000183  56.91999817
C     6.40999985  26.80999947  56.70000076
C     5.86999989  27.32000160  55.48999786
C     6.76000023  27.72999954  54.52000046
C     8.17000008  27.70000076  54.62999725
C    12.36999989  27.92000008  55.00999832
C    12.92000008  28.50000000  53.83999634
C    14.25000000  28.85999870  53.72000122
C     4.39000034  27.19000053  55.20000076
H     4.12664223  26.47110367  54.42416000
H     8.65999985  28.64999962  52.70999908
H    10.40999985  26.83000183  57.02000046
H     8.14999962  26.44000053  57.84999847
H     5.73000002  26.40999985  57.43999863
H     6.35999966  27.93999863  53.53000259
H    14.55999947  29.20000076  52.74000168
H     3.76999998  26.90000153  56.04999924
H     4.01999998  28.16999817  54.87999725
S    15.84000015  27.56999969  57.14000320
C    18.48999977  28.12999916  56.32999802
C    17.13999939  28.09999847  56.05999756
C    16.59000015  28.68999863  54.87999725
C    17.45000076  29.18000031  53.90999603
C    18.84000015  29.26000214  54.15999985
C    19.68000031  29.99000168  53.27999878
C    21.00000000  30.25000000  53.59000397
C    21.48999977  29.72999954  54.81999969
C    20.69999886  29.10000038  55.75000000
C    19.36000061  28.78000069  55.40999985
C    15.14000034  28.61999893  54.78000259
C    14.60000038  28.02999878  55.96000290
C    13.25000000  27.73999977  56.09000397
C    22.95999908  30.00999832  55.01999664
H    23.47220802  29.41242218  55.77408218
H    18.82999992  27.93999863  57.34000397
H    17.00000000  29.61999893  53.02000046
H    19.19999886  30.61000061  52.51999664
H    21.60000038  30.65999985  52.77999878
H    21.14000130  28.71000099  56.65999985
H    12.79999924  27.40999985  57.02000046
H    23.09999847  31.09000015  55.13000107
H    23.40999985  29.84000015  54.02999878
