96

S    15.52999973  33.36000061  60.61999893
C    18.12000084  33.72000122  59.64000320
C    16.84000015  33.27000046  59.43000031
C    16.39000130  32.78000259  58.15999985
C    17.20999908  32.88000107  57.04999924
C    18.52000046  33.40999985  57.18000031
C    19.48999977  33.32999802  56.14999771
C    20.78000069  33.75999832  56.38000107
C    21.18000031  34.29999924  57.63000107
C    20.27000046  34.31000137  58.66000366
C    18.96000099  33.77000046  58.50000000
C    14.96000099  32.50000000  58.16999817
C    14.35999966  32.77000046  59.43000031
C    12.97000027  32.86999893  59.52999878
C    22.63000107  34.61999893  57.88999939
H    23.08629990  34.00684738  58.66713333
H    18.45999908  34.13000107  60.59000015
H    16.90000153  32.50000000  56.07999802
H    19.07999992  32.92000198  55.22999573
H    21.47999954  33.43000031  55.61999893
H    20.50000000  34.70999908  59.64000320
H    12.48999977  33.02000046  60.48999786
H    23.22000122  34.54999924  56.97000122
H    22.70000076  35.63000107  58.33000183
S    11.64999962  31.64999962  55.97000122
C     9.04999924  31.38000107  56.81000137
C    10.31000042  31.84999847  57.11000061
C    10.67000008  32.27999878  58.43000031
C     9.77999973  32.15999985  59.47000122
C     8.43999958  31.76000214  59.22999954
C     7.48000050  31.61000061  60.27000046
C     6.23000050  31.14999962  59.93999863
C     5.88000011  30.86999893  58.60000229
C     6.80999994  30.90999985  57.57999802
C     8.10999966  31.42999840  57.87000275
C    12.11999989  32.43999863  58.50000000
C    12.76000023  32.11000061  57.28000259
C    14.14000034  32.14999771  57.09999847
C     4.46999979  30.38000107  58.34999847
H     4.09326172  30.69276428  57.37616730
H     8.76000023  30.86000061  55.90000153
H    10.01000023  32.40000153  60.51000214
H     7.73999977  31.90000153  61.29000092
H     5.46000004  31.19999886  60.70000076
H     6.53999996  30.56999969  56.58000183
H    14.48999977  31.97000122  56.09000397
H     3.94000006  30.69999886  59.25000000
H     4.55000019  29.27999878  58.37999725
S    15.18000031  33.87000275  53.95000076
C    17.84000015  34.24000168  53.02000046
C    16.54999924  33.81999969  52.81000137
C    16.20000076  33.09000015  51.63000107
C    17.23999977  32.80999756  50.76000214
C    18.53999901  33.36999893  50.86999893
C    19.60000038  33.09000015  49.95999908
C    20.81999969  33.72000122  50.10000229
C    21.14000130  34.54000092  51.22000122
C    20.13999939  34.73999786  52.15000153
C    18.84000015  34.18000031  52.02000046
C    14.80999947  32.63999939  51.60999680
C    14.11999893  33.08000183  52.77000046
C    12.76999950  32.81999969  52.94000244
C    22.53999901  35.04000092  51.42000198
H    23.08198166  34.46236038  52.16879272
H    18.06999969  34.61000061  54.01000214
H    17.13000107  32.09999847  49.95999908
H    19.34999847  32.44999695  49.12000275
H    21.65999985  33.38000107  49.51000214
H    20.39999962  35.26000214  53.06999969
H    12.27000046  32.99000168  53.88999939
H    22.93000031  35.02999878  50.40000153
H    22.52000046  36.09999847  51.70999908
S    11.57999992  31.28000069  49.45000076
C     8.92000008  31.04000092  50.43000031
C    10.22999954  31.40999985  50.59999847
C    10.65000057  31.94999886  51.86000061
C     9.75000000  32.22999954  52.87000275
C     8.39999962  31.83000183  52.72999573
C     7.44000006  31.96000099  53.77999878
C     6.17000008  31.50000000  53.50999832
C     5.73999977  30.86999893  52.31999969
C     6.67000008  30.72999954  51.31999969
C     8.01000023  31.18000031  51.51000214
C    12.05999947  32.30999756  51.84999847
C    12.71000004  31.94999886  50.63999939
C    14.09999943  32.06999969  50.54999924
C     4.30999994  30.40999985  52.09000015
H     3.91165805  31.00040054  51.26486206
H     8.55000019  30.68000031  49.47000122
H     9.98000050  32.77000046  53.79000092
H     7.76999998  32.34000015  54.73999786
H     5.46000004  31.59000015  54.33000183
H     6.43000031  30.38000107  50.31999969
H    14.56999969  31.67000008  49.65999985
H     3.54999995  30.59999847  52.85999680
H     4.30000019  29.34000015  51.86000061
