96

S    15.34000015  32.95000076  60.31999969
C    18.04999924  33.13999939  59.62999725
C    16.79000092  32.63000107  59.36000061
C    16.40999985  32.27999878  58.02999878
C    17.38000107  32.29000092  57.04000092
C    18.71000099  32.72000122  57.28000259
C    19.70000076  32.79999924  56.26999664
C    20.97999954  33.25000000  56.50000000
C    21.25000000  33.75000000  57.81000137
C    20.32999992  33.70999908  58.82999802
C    19.03000069  33.15999985  58.61000061
C    14.96999931  32.25000000  57.77000046
C    14.26000023  32.59999847  58.95000076
C    12.88000011  32.56999969  59.09999847
C    22.62000084  34.27999878  58.16999817
H    23.18347359  33.62380219  58.83332825
H    18.27000046  33.65000153  60.56000137
H    17.02999878  31.94000053  56.06999969
H    19.34000015  32.63000107  55.25000000
H    21.73999977  33.20000076  55.72999954
H    20.59999847  34.24000168  59.73999786
H    12.48000050  32.70000076  60.10000229
H    23.15999985  34.33000183  57.22000122
H    22.47999954  35.27000046  58.61999893
S    11.67000008  31.40000153  55.58000183
C     9.11000061  30.89999962  56.50000000
C    10.27999973  31.60000038  56.66999817
C    10.64000034  32.16999817  57.93000031
C     9.65999985  32.26000214  58.89999771
C     8.34999943  31.78999901  58.66000366
C     7.36999989  31.70999908  59.69999695
C     6.15999985  31.09999847  59.50000000
C     5.84999990  30.40999985  58.29999924
C     6.81999969  30.40999985  57.31999969
C     8.06999969  31.07999992  57.43999863
C    12.07999992  32.37999725  57.97000122
C    12.79999924  32.00999832  56.79999924
C    14.18000031  31.98999786  56.65000153
C     4.44999981  29.89000130  58.09999847
H     3.89549637  30.45872307  57.35355377
H     8.98999977  30.29999924  55.59999847
H     9.94000053  32.66999817  59.86000061
H     7.51999950  32.21999741  60.65000153
H     5.35000038  31.18000031  60.21999741
H     6.60000038  29.94999886  56.35000229
H    14.65000057  31.68999863  55.70999908
H     3.94000006  29.94999886  59.06999969
H     4.51999998  28.84000015  57.78999710
S    11.65999985  29.01000023  52.65999603
C     9.02999973  28.31000137  53.36000061
C    10.36999893  28.28000069  53.63999939
C    10.88999939  27.79999924  54.87999725
C    10.01999950  27.21999931  55.79000092
C     8.64000034  27.13999939  55.50000000
C     7.75000000  26.56999969  56.45000076
C     6.42000008  26.57999992  56.11000061
C     5.88999987  27.20999908  54.94999695
C     6.72999954  27.80999947  54.03999710
C     8.13000011  27.70999908  54.27999878
C    12.32999992  27.98000145  55.06000137
C    12.84000015  28.69999886  53.95000076
C    14.19000053  28.97000122  53.76999664
C     4.40000010  27.49000168  54.91000366
H     3.90744281  26.96889114  54.08906937
H     8.52999973  28.64999962  52.44999695
H    10.44999981  26.80999947  56.70000076
H     8.11999989  26.34000015  57.43999863
H     5.77000046  26.28999901  56.93000031
H     6.38000011  28.31000137  53.13999939
H    14.65000057  29.53000069  52.95000076
H     3.86999989  27.23999977  55.84000015
H     4.19999981  28.54999924  54.78000259
S    15.75000000  27.80999947  57.21000290
C    18.37000084  28.42000008  56.42000198
C    17.01000023  28.52999878  56.19999695
C    16.46000099  28.98999977  54.95999908
C    17.23999977  29.75000000  54.12000275
C    18.63999939  29.73999977  54.31000137
C    19.59000015  30.35000038  53.43000031
C    20.94000053  30.17999840  53.60000229
C    21.47999954  29.50000000  54.72000122
C    20.59000015  28.95999908  55.63000107
C    19.18000031  28.98999977  55.40999985
C    15.03999901  28.68000031  54.84000397
C    14.48999977  28.05000114  55.97999954
C    13.17000008  27.62000084  56.11999893
C    22.95000076  29.61000061  55.02999878
H    23.23445702  29.88023567  56.04693222
H    18.76000023  27.86999893  57.27000427
H    16.81999969  30.31999969  53.29000092
H    19.19000053  30.76000023  52.50000000
H    21.61000061  30.63999939  52.88000107
H    20.96999931  28.64000130  56.59999847
H    12.84999943  27.13000107  57.02999878
H    23.55999947  30.22999954  54.36000061
H    23.28000069  28.57999992  54.84000397
