96

S    15.01000023  32.97999954  60.52000046
C    17.64000130  33.45000076  59.65000153
C    16.36999893  33.00000000  59.38000107
C    15.98000050  32.61000061  58.04999924
C    16.94000053  32.54000092  57.05999756
C    18.23999977  33.04000092  57.31999969
C    19.22000122  32.97999954  56.29000092
C    20.48999977  33.41999817  56.59000015
C    20.81999969  34.05999756  57.81000137
C    19.88000107  34.13000107  58.81000137
C    18.60999870  33.52999878  58.61999893
C    14.53999996  32.40000153  57.94000244
C    13.89999962  32.70000076  59.15999985
C    12.51999950  32.59999847  59.31999969
C    22.20999908  34.63999939  58.01000214
H    22.75682640  34.03636169  58.73436737
H    17.92000008  33.90999985  60.59999847
H    16.64999962  32.27999878  56.04000092
H    18.95000076  32.55000305  55.33000183
H    21.28999901  33.20999908  55.87999725
H    20.09000015  34.57999802  59.78000259
H    12.02000046  32.66999817  60.28999710
H    22.69000053  34.70000076  57.02999878
H    22.11999893  35.65000153  58.40999985
S    11.13000011  31.28999901  55.94999695
C     8.48999977  31.07999992  56.91999817
C     9.77000046  31.55999947  57.05999756
C    10.29000092  32.13000107  58.26000214
C     9.46000004  32.09000015  59.36999893
C     8.14000034  31.56999969  59.31000137
C     7.31999969  31.38000107  60.45999908
C     6.01000023  31.01000023  60.31999969
C     5.50000000  30.55999947  59.06999969
C     6.34000015  30.52000046  57.97999954
C     7.63999987  31.07999992  58.04999924
C    11.72000027  32.40000153  58.18999863
C    12.36999989  32.00000000  57.00000000
C    13.75000000  32.04999924  56.84000015
C     4.03999996  30.20999908  58.88999939
H     3.61953831  30.86563492  58.12746811
H     8.21000004  30.55000114  56.00999832
H     9.81999969  32.19000244  60.38999939
H     7.69000006  31.77000046  61.40999603
H     5.36000013  30.95999908  61.18999863
H     5.98000002  30.22000122  57.00000000
H    14.22999954  31.87000084  55.87999725
H     3.42000008  30.39999962  59.77000427
H     3.77999997  29.15999985  58.69999695
S    14.94999981  33.51000214  54.27999878
C    17.56000137  34.02000046  53.36999893
C    16.31999969  33.47999954  53.15000153
C    15.90000057  32.92000198  51.90999985
C    16.94000053  32.68000031  51.03000259
C    18.22999954  33.25999832  51.13999939
C    19.18000031  33.18999863  50.07999802
C    20.45000076  33.70999908  50.13999939
C    20.72999954  34.45000076  51.31999969
C    19.79999924  34.63999939  52.31999969
C    18.54999924  33.95000076  52.35000229
C    14.45000076  32.76000214  51.79999924
C    13.78999901  33.04999924  53.02000046
C    12.39999962  33.06999969  53.04999924
C    22.10000038  35.02999878  51.53999710
H    22.62872696  34.45125961  52.29736710
H    17.84000015  34.57999802  54.26000214
H    16.72000122  32.13999939  50.11000061
H    18.92000008  32.76000214  49.10999680
H    21.15999985  33.65999985  49.31999969
H    20.06999969  35.28000259  53.15000153
H    11.90999985  32.97000122  54.02000046
H    22.67999840  34.95999908  50.61000061
H    21.93000031  36.09000015  51.79000092
S    11.14999962  32.11000061  49.47000122
C     8.43000031  31.97000122  50.34000015
C     9.76000023  32.23999786  50.56999969
C    10.15999985  32.63000107  51.88999939
C     9.28999996  32.61000061  52.95999908
C     7.96999979  32.13000107  52.80000305
C     7.03000021  31.90999985  53.83999634
C     5.73000002  31.51000023  53.68999863
C     5.40999985  31.19999886  52.34000397
C     6.24000025  31.42000008  51.26999664
C     7.53999996  31.97999954  51.43000031
C    11.59000015  32.90000153  51.91999817
C    12.30000019  32.59000015  50.72999954
C    13.68000031  32.37999725  50.70000076
C     4.00000000  30.72000122  52.08000183
H     3.49541044  31.36672783  51.36220551
H     8.18000031  31.54999924  49.36999893
H     9.77000046  32.69000244  53.94000244
H     7.37999964  32.31999969  54.79000092
H     4.97000027  31.57999992  54.47000122
H     5.98000002  31.01000023  50.28999710
H    14.14000034  31.88999939  49.85000229
H     3.33999991  30.69999886  52.95000076
H     4.07999992  29.70000076  51.66999817
