96

S    14.27999973  33.02000046  60.30000305
C    16.95000076  33.50000000  59.45000076
C    15.70000076  32.95999908  59.22999954
C    15.31000042  32.42000198  57.97000122
C    16.28000069  32.36000061  56.97999954
C    17.61999893  32.73999786  57.22000122
C    18.65999985  32.65000153  56.25999832
C    19.96999931  33.02999878  56.49000168
C    20.22999954  33.84999847  57.62000275
C    19.23999977  33.98999786  58.55999756
C    17.94000053  33.41999817  58.44999695
C    13.89000034  32.16999817  57.80000305
C    13.19000053  32.54000092  58.96999741
C    11.80999947  32.57999802  59.01000214
C    21.61999893  34.34999847  57.95999908
H    22.10927582  33.69763184  58.68327332
H    17.09000015  33.88999939  60.45999908
H    15.95999908  31.97000122  56.00999832
H    18.42000008  32.29999924  55.26000214
H    20.75000000  32.93000031  55.73999786
H    19.38999939  34.56000137  59.47000122
H    11.31999969  33.13999939  59.80999756
H    22.22999954  34.43999863  57.04999924
H    21.54000092  35.38000107  58.30999756
S    10.65999985  31.35000038  55.40000153
C     8.05000019  30.86999893  56.27999878
C     9.27999973  31.44000053  56.52000046
C     9.64999962  32.00000000  57.77999878
C     8.69000053  32.18000031  58.75999832
C     7.37999964  31.75000000  58.43000031
C     6.39999962  31.71999931  59.47000122
C     5.12000036  31.25999832  59.34000015
C     4.74000025  30.76999855  58.06000137
C     5.69999981  30.52000046  57.11000061
C     7.00999975  31.07000160  57.22000122
C    11.10000038  32.13999939  57.88999939
C    11.77999973  31.80999947  56.69000244
C    13.17000008  31.84000015  56.63999939
C     3.32999992  30.29999924  57.77999878
H     2.90218306  30.90607262  56.98140717
H     7.78999996  30.46999931  55.30000305
H     8.98999977  32.49000168  59.75000000
H     6.76000023  32.13999939  60.40999985
H     4.44999981  31.45000076  60.18000031
H     5.52999973  29.93000031  56.20999908
H    13.71000099  31.63999939  55.72000122
H     2.75999999  30.38999939  58.70999908
H     3.26999998  29.23999977  57.49000168
S    14.47000027  33.67000198  53.85000229
C    17.18000031  33.88999939  53.09999847
C    15.90000057  33.46999741  52.81999969
C    15.52999973  32.78000259  51.62000275
C    16.56999969  32.45999908  50.76000214
C    17.92000008  32.83000183  51.00000000
C    18.96000099  32.72000122  50.04000092
C    20.25000000  33.09999847  50.33000183
C    20.59000015  33.65999985  51.59000015
C    19.56999969  33.90999985  52.48000336
C    18.22999954  33.51000214  52.22999954
C    14.09000015  32.70000076  51.45000076
C    13.35999966  33.06999969  52.61000061
C    11.97999954  33.01000214  52.69000244
C    21.98999786  34.11999893  51.93999863
H    22.45336723  33.57108688  52.75980377
H    17.36999893  34.45999908  54.00000000
H    16.34000015  32.00999832  49.79999924
H    18.65999985  32.50999832  49.01000214
H    21.01000023  33.06999969  49.55999756
H    19.78000069  34.47999954  53.37999725
H    11.39000034  33.18999863  53.59000397
H    22.63000107  34.05999756  51.04999924
H    21.97000122  35.18000031  52.23999786
S    10.93000031  31.75000000  49.13000107
C     8.18000031  31.59000015  49.92000198
C     9.48999977  31.91999817  50.15999603
C     9.82999992  32.52000046  51.42000198
C     8.90999985  32.72000122  52.43000031
C     7.57999992  32.30999756  52.22999954
C     6.65000010  32.29999924  53.30999756
C     5.38000011  31.80999947  53.09000015
C     5.01999950  31.27000046  51.81999969
C     5.93999958  31.14000130  50.80999756
C     7.23000002  31.70999908  50.97000122
C    11.26000023  32.77000046  51.51000214
C    12.02000046  32.38999939  50.37000275
C    13.40000057  32.18000031  50.34999847
C     3.60000014  30.79999924  51.60999680
H     3.02873421  31.69974518  51.38149261
H     7.90000010  31.17000198  48.95999908
H     9.25000000  32.95999908  53.43999863
H     6.94000006  32.79000092  54.22999954
H     4.76999998  31.63999939  53.96999741
H     5.68000031  30.55999947  49.92000198
H    13.94999981  31.93000031  49.45000076
H     3.24000001  30.29999924  52.52999878
H     3.51000023  30.05000114  50.80999756
