96

S    15.71000004  33.06000137  60.52000046
C    18.38999939  33.20000076  59.65999985
C    17.07999992  32.84000015  59.43000031
C    16.65999985  32.40999985  58.13000107
C    17.61000061  32.34999847  57.12999725
C    18.96000099  32.70000076  57.36000061
C    19.93000031  32.79999924  56.32999802
C    21.25999832  33.09999847  56.55000305
C    21.68000031  33.45999908  57.84999847
C    20.76999855  33.45000076  58.88000107
C    19.40000153  33.11999893  58.67000198
C    15.21999931  32.16999817  58.06000137
C    14.56999969  32.52000046  59.27000046
C    13.17999935  32.56999969  59.34000015
C    23.08000183  33.97999954  58.08000183
H    23.65818405  33.34471130  58.75098038
H    18.73999977  33.59999847  60.61000061
H    17.25000000  32.02999878  56.14999771
H    19.69000053  32.54000092  55.30000305
H    22.01000023  33.15999985  55.77000046
H    21.04000092  33.68999863  59.91000366
H    12.76000023  32.63000107  60.34000015
H    23.64999962  34.00000000  57.14000320
H    22.96999931  34.97999954  58.52000427
S    11.97000027  31.30000114  55.77000046
C     9.34000015  30.97999954  56.65000153
C    10.62999916  31.38999939  56.93000031
C    10.98000050  31.94999886  58.18999863
C    10.06000042  32.11000061  59.22000122
C     8.71999931  31.78999901  58.93000031
C     7.69999981  31.96000099  59.91000366
C     6.39999962  31.54999924  59.73999786
C     6.11000013  30.81000137  58.55999756
C     7.07999992  30.59000015  57.60000229
C     8.40999985  31.07000160  57.71999741
C    12.41000080  32.20999908  58.22000122
C    13.09000015  31.87000084  57.02000046
C    14.47000027  31.91999817  56.90999985
C     4.71000004  30.31999969  58.27999878
H     4.26983070  30.66077614  57.34286499
H     9.18000031  30.35000038  55.77999878
H    10.44999981  32.21999741  60.22999573
H     7.92999983  32.26000214  60.93000031
H     5.68000031  31.65999985  60.54000092
H     6.76999998  30.10999870  56.68000031
H    15.01000023  31.68000031  56.00000000
H     4.03999996  30.66999817  59.08000183
H     4.67999983  29.23999977  58.43000031
S    16.13999939  33.55999756  53.97999573
C    18.77000046  33.97000122  53.09000015
C    17.52000046  33.46999741  52.85999680
C    17.07999992  33.08000183  51.56000137
C    18.04000092  33.06000137  50.56000137
C    19.31999969  33.61999893  50.70000076
C    20.29999924  33.48999786  49.68000031
C    21.63999939  33.75000000  49.91000366
C    22.01000023  34.24000168  51.18000031
C    21.09999847  34.27999878  52.21000290
C    19.70999908  34.04999924  52.02999878
C    15.65000057  32.84000015  51.40999603
C    15.03999901  33.09000015  52.67000198
C    13.64999962  33.11000061  52.81999969
C    23.44000053  34.64999771  51.45000076
H    23.98682594  34.04636383  52.17436600
H    19.11000061  34.29000092  54.06999969
H    17.86000061  32.57999802  49.59999847
H    19.92000008  33.18999863  48.70999908
H    22.27999878  33.68999863  49.02999878
H    21.24000168  34.63000107  53.22999954
H    13.17000008  33.45999908  53.72000122
H    24.00000000  34.61999893  50.51000214
H    23.57000160  35.68999863  51.77000046
S    12.30999947  31.63999939  49.36000061
C     9.73999977  31.40000153  50.34000015
C    11.00999928  31.87999916  50.54999924
C    11.44999981  32.47000122  51.77999878
C    10.50000000  32.70999908  52.75000000
C     9.17000008  32.27000046  52.60000229
C     8.14000034  32.36999893  53.57999802
C     6.94999981  31.70000076  53.47999954
C     6.51000023  31.30000114  52.18999863
C     7.44999981  31.18000031  51.19999695
C     8.78999996  31.60000038  51.37000275
C    12.86999893  32.77000046  51.70999908
C    13.48999977  32.29999924  50.51000214
C    14.85999966  32.37999725  50.34999847
C     5.07999992  30.86000061  51.95999908
H     4.48944950  31.52881813  51.33387375
H     9.48999977  30.90999985  49.40000153
H    10.60999966  33.29999924  53.66000366
H     8.46000004  32.80999756  54.52999878
H     6.24000025  31.70000076  54.31000137
H     7.13000011  30.76999855  50.24000168
H    15.34000015  32.04999924  49.43000031
H     4.65000010  30.59000015  52.94000244
H     5.14999962  29.96000099  51.33999634
