96

S    14.94999981  33.01000214  60.45000076
C    17.52000046  33.36000061  59.52000046
C    16.25000000  32.90000153  59.25000000
C    15.84000015  32.47999954  57.95000076
C    16.70999908  32.47999954  56.86999893
C    18.04999924  32.84000015  57.14000320
C    19.06999969  32.72000122  56.14999771
C    20.29999924  33.29000092  56.36000061
C    20.65000153  33.90000153  57.58999634
C    19.72999954  33.88999939  58.61999893
C    18.44000053  33.31000137  58.43999863
C    14.40000057  32.25000000  57.95999908
C    13.78000069  32.57999802  59.20000076
C    12.38999939  32.50000000  59.31000137
C    22.01000023  34.52000046  57.78999710
H    22.50185204  33.98537827  58.60262299
H    17.78000069  33.90999985  60.41999817
H    16.50000000  32.07999802  55.87999725
H    18.71000099  32.29999924  55.20999908
H    21.01000023  33.31999969  55.52999878
H    19.98999977  34.47999954  59.48999786
H    11.90999985  32.59000015  60.27999878
H    22.52000046  34.54000092  56.81999969
H    21.76000214  35.56000137  58.02999878
S    11.09000015  31.60000038  55.65999985
C     8.52000046  30.96999931  56.56999969
C     9.73999977  31.54999924  56.81999969
C    10.15999985  32.02000046  58.09999847
C     9.22999954  32.06000137  59.13000107
C     7.96000004  31.45999908  58.94000244
C     7.00000000  31.34000015  59.99000168
C     5.80999947  30.68000031  59.77000427
C     5.45000029  30.22000122  58.47999954
C     6.32999992  30.32999992  57.43999863
C     7.63000011  30.86999893  57.67000198
C    11.59999943  32.16999817  58.20000076
C    12.25000000  31.94000053  56.95999908
C    13.63000011  31.97000122  56.81999969
C     4.03999996  29.73999977  58.20999908
H     3.48690677  30.44200325  57.58599472
H     8.32999992  30.40999985  55.65999985
H     9.53999996  32.29000092  60.14999771
H     7.22000027  31.77999878  60.94999695
H     5.01999950  30.59000015  60.51000214
H     5.96000004  29.90999985  56.51000214
H    14.19999981  31.90999985  55.90000153
H     3.49000001  29.60000038  59.15000153
H     4.00000000  28.77000046  57.70000076
S    11.02000046  29.18000031  52.68000031
C     8.47999954  28.61999893  53.70999908
C     9.84000015  28.57999992  53.87000275
C    10.54999924  28.22000122  55.06000137
C     9.80000019  27.56000137  56.00999832
C     8.38999939  27.46000099  55.86999893
C     7.63999987  26.67000008  56.77999878
C     6.30000019  26.44000053  56.59000015
C     5.61999989  27.06000137  55.50000000
C     6.32000017  27.78000069  54.55999756
C     7.71000004  28.02999878  54.73999786
C    12.00000000  28.38000107  55.02999878
C    12.38999939  28.87000084  53.75999832
C    13.71000099  29.25000000  53.54000092
C     4.15000010  26.76000214  55.34000015
H     3.72306037  27.02328110  54.37226868
H     7.90999985  29.03000069  52.87000275
H    10.31000042  27.07999992  56.84000015
H     8.19999981  26.22999954  57.60000229
H     5.75999975  25.79999924  57.29000092
H     5.92000008  28.12000084  53.61000061
H    14.01000023  29.86000061  52.69000244
H     3.98000002  25.72000122  55.61000061
H     3.60000014  27.22999954  56.17000198
S    15.52000046  28.45000076  57.05999756
C    18.04000092  29.06999969  55.94999695
C    16.67000008  29.10000038  55.87999725
C    16.02000046  29.46000099  54.65000153
C    16.79000092  30.06999969  53.67000198
C    18.20000076  30.10000038  53.75999832
C    19.03000069  30.76999855  52.81000137
C    20.38999939  30.86999893  52.95999908
C    21.02999878  30.27000046  54.08000183
C    20.28000069  29.67000008  55.06999969
C    18.86999893  29.56000137  54.91000366
C    14.63000107  29.05999947  54.58000183
C    14.22999954  28.55999947  55.84000015
C    12.89999962  28.22999954  56.09000397
C    22.50000000  30.56999969  54.27999878
H    22.84036636  30.30054474  55.27981949
H    18.55999947  28.68000031  56.83000183
H    16.39000130  30.40999985  52.71999741
H    18.52000046  31.27000046  52.00000000
H    20.89999962  31.57999992  52.31999969
H    20.69999886  29.28999901  56.00000000
H    12.48000050  27.86999893  57.02999878
H    22.60999870  31.65999985  54.16999817
H    23.12000084  30.15999985  53.47999954
