96

S    15.59000015  33.34999847  60.40000153
C    18.20000076  33.44000244  59.51000214
C    16.92000008  32.99000168  59.27999878
C    16.46999931  32.50999832  58.01000214
C    17.43000031  32.40000153  57.02999878
C    18.76000023  32.88000107  57.15999985
C    19.70000076  32.97999954  56.09000397
C    21.00000000  33.32999802  56.37000275
C    21.42999840  33.72999954  57.65999603
C    20.51000214  33.68999863  58.68999863
C    19.15999985  33.31000137  58.47000122
C    15.03000069  32.33000183  57.98999786
C    14.40999985  32.80999756  59.18000031
C    13.03999996  32.75000000  59.38999939
C    22.86000061  34.13000107  57.94000244
H    23.38050079  33.52393723  58.68153381
H    18.48999977  33.93000031  60.44000244
H    17.22999954  32.04999924  56.02000427
H    19.45999908  32.62000275  55.08999634
H    21.77000046  33.15000153  55.63999939
H    20.68000031  34.09000015  59.68000031
H    12.48000050  32.93999863  60.31000137
H    23.34000015  34.11000061  56.95000076
H    22.67999840  35.18000031  58.20000076
S    11.67000008  31.35000038  55.91999817
C     9.17000008  30.88000107  56.93000031
C    10.43000031  31.35999870  57.18999863
C    10.77999973  32.00999832  58.41999817
C     9.82999992  32.16999817  59.40999985
C     8.56000042  31.55999947  59.20999908
C     7.53000021  31.53000069  60.19000244
C     6.25000000  31.09999847  59.93999863
C     5.88000011  30.55999947  58.68000031
C     6.88000011  30.48000145  57.72999573
C     8.18000031  31.01000023  57.93000031
C    12.20999908  32.29000092  58.36000061
C    12.81999969  31.94999886  57.12999725
C    14.19999981  31.91999817  56.93999863
C     4.44999981  30.13000107  58.46000290
H     3.97945237  30.65045547  57.62585068
H     8.89000034  30.29000092  56.05999756
H    10.08999920  32.52000046  60.40999985
H     7.71000004  32.14999771  61.06999969
H     5.42999983  31.22999954  60.63999939
H     6.69000053  29.96000099  56.79999924
H    14.57999992  31.67000008  55.96000290
H     4.00999975  30.39999962  59.43000031
H     4.38000011  29.04000092  58.39000320
S    11.67000008  29.30999947  52.90999985
C     9.17000008  28.46999931  53.83999634
C    10.53999996  28.45000076  53.97999573
C    11.18000031  27.82999992  55.10000229
C    10.40999985  27.11999893  56.00000000
C     9.00000000  27.20999908  55.90000153
C     8.14999962  26.55999947  56.84000015
C     6.77999973  26.64999962  56.83000183
C     6.17000008  27.43999863  55.81999969
C     6.90999985  27.92000008  54.75000000
C     8.32999992  27.85000038  54.79999924
C    12.57999992  28.19999886  55.14999771
C    12.96000004  29.09000015  54.12000275
C    14.22000027  29.68000031  54.02000046
C     4.67000008  27.57999802  55.77999878
H     4.20167017  27.16843605  54.88591766
H     8.63000011  29.05999947  53.09999847
H    10.81999969  26.64999962  56.88999939
H     8.56000042  25.98999977  57.67000198
H     6.28000021  26.05999947  57.60000229
H     6.47000027  28.35000038  53.86000061
H    14.48999977  30.34000015  53.20999908
H     4.23000002  27.04000092  56.63000107
H     4.44000006  28.64999962  55.90999985
S    16.27000046  28.02000046  56.95999908
C    18.71999931  29.11999893  56.18999863
C    17.38000107  28.94000053  55.93000031
C    16.64999962  29.47999954  54.82999802
C    17.45000076  30.15999985  53.93000031
C    18.86000061  30.22999954  54.05000305
C    19.63999939  30.85000038  53.02999878
C    21.00000000  30.95000076  53.13999939
C    21.68000031  30.32999992  54.22999954
C    20.95999908  29.72999954  55.24000168
C    19.52999878  29.79000092  55.25000000
C    15.21000004  29.23999977  54.89999771
C    14.85000038  28.36000061  55.96000290
C    13.57999992  27.79999924  56.04999924
C    23.19000053  30.29999924  54.27000046
H    23.57576180  30.14283562  55.27726746
H    19.22000122  28.65999985  57.04000092
H    16.94000053  30.76000023  53.18000031
H    19.15999985  31.19999886  52.11999893
H    21.53000069  31.38999939  52.29000092
H    21.48999977  29.11999893  55.96000290
H    13.35999966  27.01000023  56.76000214
H    23.59000015  31.25999832  53.90999603
H    23.69999886  29.57999992  53.61999893
