96

S    14.73000050  33.44000244  60.17000198
C    17.35999870  33.62999725  59.36999893
C    16.06999969  33.27999878  59.02999878
C    15.62000084  32.84000015  57.74000168
C    16.62999916  32.72000122  56.79999924
C    17.95999908  33.13000107  57.05999756
C    18.98999977  33.11999893  56.07999802
C    20.26000023  33.61000061  56.31000137
C    20.62000084  34.11000061  57.58999634
C    19.63999939  34.18000031  58.54999924
C    18.34000015  33.62999725  58.36000061
C    14.19000053  32.56999969  57.69000244
C    13.59000015  32.80999756  58.95999908
C    12.23000050  32.79000092  59.20000076
C    21.96000099  34.70000076  57.95000076
H    22.52174377  34.10270309  58.66817856
H    17.64999962  34.02000046  60.34999847
H    16.36999893  32.56000137  55.76000214
H    18.81999969  32.52000046  55.20000076
H    21.09000015  33.51000214  55.61000061
H    19.79999924  34.68000031  59.50000000
H    11.87000084  32.84000015  60.22999573
H    22.56000137  34.81999969  57.02999878
H    21.87999916  35.70000076  58.39000320
S    10.77999973  31.77999878  55.61000061
C     8.22000027  31.37000084  56.73999786
C     9.51000023  31.80999947  56.84999847
C     9.98000050  32.16999817  58.15000153
C     9.17000008  32.22999954  59.27000046
C     7.82000017  31.80999947  59.13999939
C     6.86999989  31.80999947  60.19000244
C     5.56999969  31.37000084  60.10000229
C     5.14999962  30.88000107  58.82999802
C     6.01999998  30.88000107  57.76000214
C     7.37999964  31.28999901  57.88000107
C    11.39999962  32.49000168  58.11000061
C    11.96000004  32.34000015  56.81000137
C    13.32999992  32.40000153  56.59999847
C     3.68999982  30.62000084  58.57999802
H     3.34822035  31.06858635  57.64722824
H     7.86000013  30.95999908  55.79000092
H     9.53999996  32.65000153  60.20000076
H     7.17000008  32.45999908  61.00999832
H     4.92000008  31.80000114  60.86000061
H     5.69999981  30.59999847  56.76000214
H    13.86000061  32.29000092  55.65999985
H     3.05000019  30.93000031  59.41999817
H     3.52999973  29.54000092  58.43000031
S    15.10000038  33.91999817  53.96999741
C    17.72999954  34.18999863  53.06000137
C    16.42000008  33.86000061  52.78999710
C    16.02000046  33.29000092  51.53999710
C    16.95999908  33.13999939  50.52999878
C    18.30999947  33.45999908  50.79999924
C    19.31999969  33.29999924  49.81999969
C    20.62999916  33.61000061  50.05000305
C    21.04000092  34.13999939  51.31000137
C    20.06999969  34.36000061  52.25999832
C    18.73999977  33.90000153  52.09999847
C    14.59000015  32.99000168  51.52000046
C    13.97999954  33.23999786  52.77000046
C    12.63000011  32.95999908  52.98999786
C    22.49000168  34.48999786  51.52999878
H    22.98779106  33.87131500  52.27668381
H    17.94999886  34.68000031  54.00000000
H    16.67000008  32.76000214  49.55999756
H    18.97999954  32.90000153  48.86000061
H    21.28000069  33.29000092  49.23999786
H    20.36000061  34.88999939  53.16999817
H    12.13000107  33.25000000  53.90999603
H    22.98999977  34.31999969  50.56000137
H    22.60999870  35.56999969  51.69000244
S    11.26999950  32.15999985  49.34000015
C     8.64999962  31.77999878  50.20999908
C     9.92000008  32.21999741  50.48999786
C    10.34999943  32.52000046  51.81999969
C     9.36999989  32.63000107  52.77999878
C     8.05000019  32.14999771  52.56999969
C     7.00999975  32.27999878  53.53000259
C     5.69999981  32.06999969  53.20000076
C     5.36000013  31.54999924  51.91999817
C     6.30999994  31.47999954  50.93000031
C     7.68000031  31.70999908  51.25000000
C    11.78999996  32.73999786  51.90000153
C    12.42000008  32.47000122  50.65999985
C    13.80000019  32.47000122  50.48999786
C     3.91000009  31.19999886  51.65000153
H     3.48349524  31.85397339  50.88940048
H     8.32999992  31.60000038  49.19000244
H     9.55999947  33.08000183  53.75999832
H     7.26999998  32.77000046  54.47000122
H     4.97000027  32.25000000  53.97999573
H     6.03999996  31.30000114  49.89999771
H    14.27999973  32.21999741  49.54999924
H     3.35000014  31.45000076  52.56000137
H     3.81999993  30.13999939  51.38999939
