96

S    15.14000034  33.02999878  60.34999847
C    17.77000046  33.56999969  59.48999786
C    16.51000023  33.08000183  59.22999954
C    16.17000008  32.57999802  57.94000244
C    17.11000061  32.55000305  56.93000031
C    18.44000053  32.95999908  57.19999695
C    19.42000008  32.97999954  56.17000198
C    20.68000031  33.44000244  56.46999741
C    21.01000023  34.04000092  57.70999908
C    20.07999802  34.03000259  58.72000122
C    18.76000023  33.55999756  58.47000122
C    14.75000000  32.27999878  57.81000137
C    14.06000042  32.54000092  59.02999878
C    12.67000008  32.54000092  59.09999847
C    22.43000031  34.52999878  57.91999817
H    22.98068428  33.85773468  58.57795715
H    18.01000023  34.13000107  60.38000107
H    16.86000061  32.31999969  55.89000320
H    19.17000008  32.56999969  55.20000076
H    21.50000000  33.27999878  55.77000046
H    20.32999992  34.38999939  59.72000122
H    12.23000050  32.72000122  60.07999802
H    22.86000061  34.54999924  56.90999985
H    22.43999863  35.56000137  58.29000092
S    11.51999950  31.27000046  55.50000000
C     8.85000038  30.95999908  56.45999908
C    10.13000011  31.42999840  56.59000015
C    10.50000000  32.07999802  57.81000137
C     9.65999985  32.27999878  58.88999939
C     8.34000015  31.77000046  58.75000000
C     7.53000021  31.57999992  59.89999771
C     6.28999996  30.98999977  59.85000229
C     5.82000017  30.56999969  58.57999802
C     6.67999983  30.46999931  57.50999832
C     7.92999983  31.14000130  57.52999878
C    11.94000053  32.26000214  57.94000244
C    12.61999989  31.77000046  56.79999924
C    14.00000000  31.87000084  56.70000076
C     4.50000000  29.84999847  58.43999863
H     3.81137705  30.36824226  57.77267456
H     8.60000038  30.45000076  55.52999878
H    10.11999989  32.45999908  59.86000061
H     7.90999985  32.06000137  60.79999924
H     5.65999985  30.84000015  60.72000122
H     6.34999990  30.06999969  56.56000137
H    14.47999954  31.61000061  55.76000214
H     4.09000015  29.76000023  59.45000076
H     4.61999989  28.82999802  58.06000137
S    15.21000004  33.84000015  54.05000305
C    17.92000008  34.17000198  53.34999847
C    16.67000008  33.68999863  53.04999924
C    16.39999962  33.08000183  51.77999878
C    17.42000008  32.88999939  50.86000061
C    18.71000099  33.38999939  51.16000366
C    19.79999924  33.25999832  50.25000000
C    21.04999924  33.67000198  50.63000107
C    21.31999969  34.36000061  51.84999847
C    20.26000023  34.56999969  52.70000076
C    18.96000099  34.08000183  52.38999939
C    15.01999950  32.63000107  51.66999817
C    14.25000000  33.08000183  52.76000214
C    12.86000061  32.97999954  52.77999878
C    22.67999840  34.83000183  52.29999924
H    23.40456200  34.08412552  52.62676620
H    18.19000053  34.68000031  54.27999878
H    17.13000107  32.47000122  49.89999771
H    19.62000084  32.88999939  49.23999786
H    21.88999939  33.52999878  49.94999695
H    20.36000061  35.09000015  53.64999771
H    12.17000008  33.39999771  53.50999832
H    23.12999916  35.30999756  51.42000198
H    22.50999832  35.68999863  52.95999908
S    11.77999973  31.56999969  49.27000046
C     9.06999969  31.18000031  50.18000031
C    10.36999893  31.59000015  50.34999847
C    10.76000023  32.13000107  51.62000275
C     9.81000042  32.26000214  52.62000275
C     8.47999954  31.78999901  52.50000000
C     7.48000050  31.83000183  53.50999832
C     6.21000004  31.34000015  53.33000183
C     5.86000013  30.85000038  52.04000092
C     6.76999998  30.82999992  51.00999832
C     8.10999966  31.25999832  51.22000122
C    12.17000008  32.47000122  51.66999817
C    12.92000008  32.11999893  50.52000046
C    14.30999947  32.13000107  50.56999969
C     4.44999981  30.35000038  51.79999924
H     3.86537933  30.88471222  51.05139923
H     8.75000000  30.76000023  49.22999954
H    10.11999989  32.68000031  53.57999802
H     7.65999985  32.40000153  54.41999817
H     5.55999994  31.34000015  54.20000076
H     6.38000011  30.35000038  50.12000275
H    14.88000011  31.87999916  49.66999817
H     3.98000002  30.52999878  52.77999878
H     4.44000006  29.27000046  51.59999847
