96

S    16.13000107  32.27999878  60.91999817
C    18.81999969  32.49000168  60.01999664
C    17.48999977  32.23999786  59.77000427
C    17.12000084  31.90999985  58.43000031
C    18.04000092  31.60000038  57.44999695
C    19.36000061  32.09999847  57.63999939
C    20.38000107  32.06000137  56.63999939
C    21.61000061  32.65000153  56.83000183
C    21.94999886  33.16999817  58.11000061
C    21.01000023  33.15999985  59.12000275
C    19.72999954  32.59000015  58.94000244
C    15.67000008  31.77000046  58.39000320
C    14.96999931  32.06000137  59.59000015
C    13.59000015  32.11999893  59.69999695
C    23.38000107  33.54999924  58.41999817
H    23.84879684  32.78998184  59.04505920
H    19.22000122  32.88000107  60.94999695
H    17.70000076  31.35000038  56.45000076
H    20.22000122  31.54999924  55.70000076
H    22.36000061  32.63999939  56.04999924
H    21.31999969  33.55999756  60.07999802
H    13.09999943  32.42000198  60.61000061
H    23.85000038  33.54000092  57.43000031
H    23.42000008  34.56999969  58.81000137
S    12.50000000  30.78000069  56.12999725
C     9.81000042  30.53999901  56.81000137
C    11.07999992  30.93000031  57.18000031
C    11.36999989  31.51000023  58.44999695
C    10.34000015  31.84000015  59.31000137
C     9.02999973  31.42000008  58.96999741
C     8.03999996  31.50000000  59.98000336
C     6.78999996  30.95999908  59.77000427
C     6.47000027  30.38000107  58.50999832
C     7.44000006  30.20000076  57.55000305
C     8.75000000  30.73999786  57.72999573
C    12.79999924  31.73000145  58.61000061
C    13.52000046  31.45999908  57.42000198
C    14.91000080  31.45999908  57.25999832
C     5.09000015  29.82000160  58.25000000
H     4.57766056  30.28964615  57.41033173
H     9.68000031  30.07999802  55.84000015
H    10.50000000  32.25000000  60.31000137
H     8.21000004  32.11000061  60.86000061
H     6.02999973  31.18999863  60.51000214
H     7.14999962  29.56999969  56.72000122
H    15.36000061  31.15999985  56.31000137
H     4.46000004  29.92000198  59.15000153
H     5.13000011  28.72999954  58.18999863
S    16.07999992  32.81999969  54.48999786
C    18.56999969  33.54000092  53.66000366
C    17.40999985  32.90000153  53.30999756
C    17.02999878  32.45999908  52.00000000
C    17.97000122  32.59000015  50.97999954
C    19.25000000  33.06999969  51.35000229
C    20.28000069  33.13000107  50.37000275
C    21.56999969  33.52999878  50.63000107
C    21.90000153  33.93000031  51.95999908
C    20.89999962  34.00000000  52.90999985
C    19.59000015  33.52000046  52.67000198
C    15.59999943  32.25000000  51.90000153
C    14.98000050  32.36000061  53.16999817
C    13.60999966  32.27999878  53.37999725
C    23.31000137  34.40000153  52.21000290
H    23.75710869  33.71869278  52.93389130
H    18.78000069  33.86000061  54.68000031
H    17.67000008  32.29000092  49.98000336
H    19.96000099  32.83000183  49.36999893
H    22.36000061  33.36999893  49.91000366
H    21.25999832  34.36000061  53.87000275
H    13.09999943  32.43000031  54.33000183
H    23.85000038  34.47000122  51.25000000
H    23.38999939  35.43000031  52.58999634
S    12.30999947  31.42999840  49.69999695
C     9.75000000  30.86000061  50.52000046
C    11.00000000  31.31000137  50.87999725
C    11.38000011  31.67000008  52.21000290
C    10.36000061  31.78999901  53.15000153
C     9.03999996  31.40999985  52.81999969
C     7.97999954  31.63000107  53.75000000
C     6.77999973  31.00000000  53.54999924
C     6.52999973  30.30999947  52.32999802
C     7.44000006  30.34000015  51.30000305
C     8.76000023  30.81000137  51.53999710
C    12.81000042  31.93000031  52.29000092
C    13.43999958  31.76000214  51.03000259
C    14.80999947  31.87999916  50.80999756
C     5.18000031  29.68000031  52.08000183
H     4.63554001  30.28102684  51.35169601
H     9.42000008  30.58000183  49.52999878
H    10.62000084  32.13999939  54.13999939
H     8.26000023  32.18000031  54.65000153
H     5.98999977  31.17000198  54.27999878
H     7.22000027  29.82000160  50.37000275
H    15.24000072  31.57999992  49.85000229
H     4.63999987  29.64999962  53.02999878
H     5.38999987  28.68000031  51.70000076
