96

S    15.29000092  33.01000214  59.97000122
C    17.80999947  33.56999969  58.96999741
C    16.52000046  33.15999985  58.70999908
C    16.07999992  32.63999939  57.44999695
C    16.98999977  32.36000061  56.45999908
C    18.29000092  32.88999939  56.63999939
C    19.23999977  32.88000107  55.58000183
C    20.46999931  33.48999786  55.70000076
C    20.95000076  33.94000244  56.95000076
C    20.09000015  33.84000015  58.02000046
C    18.75000000  33.36999893  57.91999817
C    14.68000031  32.22999954  57.50000000
C    14.11000061  32.43000031  58.77999878
C    12.72999954  32.43999863  58.94000244
C    22.32000160  34.56999969  57.09000015
H    22.86124229  34.05012512  57.88049698
H    18.15000153  33.90999985  59.93999863
H    16.72999954  31.80000114  55.56000137
H    18.88000107  32.56999969  54.61000061
H    21.09000015  33.70999908  54.82999802
H    20.48000145  34.06999969  59.01000214
H    12.22000027  32.69000244  59.86000061
H    22.86000061  34.34000015  56.17000198
H    22.27000046  35.63000107  57.36000061
S    11.39999962  30.95000076  55.52000046
C     8.82000065  30.59999847  56.45999908
C    10.07999992  31.09000015  56.70999908
C    10.44000053  31.83000183  57.87000275
C     9.48999977  31.97000122  58.86000061
C     8.19000053  31.42000008  58.73000336
C     7.13999987  31.61000061  59.66999817
C     5.86000013  31.14000130  59.48999786
C     5.59999990  30.48999977  58.26000214
C     6.57000017  30.20999908  57.31999969
C     7.88000011  30.71000099  57.51999664
C    11.87999916  32.04999924  57.88999939
C    12.51999950  31.70999908  56.66999817
C    13.89000034  31.65999985  56.49000168
C     4.21999979  29.86999893  58.20999908
H     3.57522964  30.38014793  57.49437332
H     8.60000038  30.10999870  55.51000214
H     9.75000000  32.36999893  59.84000397
H     7.37999964  32.13000107  60.59999847
H     5.22000027  31.18000031  60.37000275
H     6.44999981  29.59000015  56.44000244
H    14.27999973  31.28000069  55.54999924
H     3.82999992  29.80999947  59.22999954
H     4.36999989  28.85999870  57.80000305
S    11.06999969  28.68999863  52.30999756
C     8.47999954  28.21000099  53.23999786
C     9.82999992  28.09000015  53.43999863
C    10.39999962  27.62000084  54.66999817
C     9.52000046  27.11999893  55.61000061
C     8.11999989  27.22999954  55.45999908
C     7.17000008  26.84000015  56.44000244
C     5.82999992  26.73000145  56.17000198
C     5.31000042  27.18000031  54.92000198
C     6.17000008  27.63999939  53.95999908
C     7.57000017  27.72999954  54.22000122
C    11.84000015  27.81999969  54.75999832
C    12.30000019  28.44000053  53.56999969
C    13.60000038  28.90999985  53.50999832
C     3.81999993  27.04999924  54.66999817
H     3.56466055  26.26270485  53.96072388
H     8.13000011  28.54999924  52.27000427
H     9.85999966  26.56999969  56.49000168
H     7.63000011  26.50000000  57.36999893
H     5.25000000  26.28999901  56.97999954
H     5.82999992  27.95999908  52.97999954
H    13.99000072  29.30000114  52.57999802
H     3.22000003  27.00000000  55.58000183
H     3.51999998  28.02999878  54.27999878
S    15.40999985  27.95000076  56.84999847
C    17.90999985  28.92999840  55.97999954
C    16.56999969  28.71000099  55.75000000
C    15.95000076  29.13000107  54.52000046
C    16.73999977  29.80999947  53.60000229
C    18.11000061  30.07999802  53.81999969
C    18.95000076  30.72999954  52.88000107
C    20.31999969  30.81000137  53.04000092
C    20.90999985  30.32999992  54.23999786
C    20.12000084  29.69000053  55.17000198
C    18.72999954  29.46000099  54.95999908
C    14.55000019  28.74000168  54.52999878
C    14.06000042  28.12999916  55.70999908
C    12.75000000  27.67999840  55.80999756
C    22.37999916  30.56999969  54.47999954
H    22.82851791  30.11436462  55.36279678
H    18.35000038  28.61999893  56.91999817
H    16.22999954  30.25000000  52.75000000
H    18.47999954  31.17000198  52.00000000
H    20.92000008  31.37000084  52.32999802
H    20.55000114  29.30999947  56.10000229
H    12.34000015  27.32000160  56.75000000
H    22.57999802  31.64999962  54.41999817
H    22.92000008  30.10000038  53.63999939
