96

S    14.75999928  33.45000076  60.13000107
C    17.38000107  33.70999908  59.31000137
C    16.13999939  33.15999985  59.06000137
C    15.77999973  32.61000061  57.78999710
C    16.76000023  32.45999908  56.81999969
C    18.09999847  32.86999893  57.05999756
C    19.19000053  32.68000031  56.16000366
C    20.48000145  33.04999924  56.43000031
C    20.71000099  33.77000046  57.63999939
C    19.70999908  33.90999985  58.56999969
C    18.36000061  33.55999756  58.29000092
C    14.40000057  32.16999817  57.88000107
C    13.67000008  32.62000275  59.00000000
C    12.28000069  32.55000305  59.13000107
C    21.98999786  34.52000046  57.90999985
H    22.61810684  34.02750397  58.65230942
H    17.56000137  34.25000000  60.22999573
H    16.57999992  32.15999985  55.79999924
H    18.97999954  32.27999878  55.17000198
H    21.27000046  33.11999893  55.68999863
H    19.98999977  34.22999954  59.56999969
H    11.68000031  33.02000046  59.88999939
H    22.62000084  34.66999817  57.02000046
H    21.57999992  35.47999954  58.23999786
S    11.23999977  31.11999893  55.54000092
C     8.55000019  31.00000000  56.27999878
C     9.82999992  31.40000153  56.58000183
C    10.14000034  31.88999939  57.88999939
C     9.11000061  32.26000214  58.74000168
C     7.78999996  31.81999969  58.47000122
C     6.84999990  31.63999939  59.52000046
C     5.61999989  31.07000160  59.29999924
C     5.27999973  30.68000031  57.97999954
C     6.19999981  30.71000099  56.95999908
C     7.49000025  31.25999832  57.18000031
C    11.57999992  31.96000099  58.06999969
C    12.28999996  31.54999924  56.90999985
C    13.67000008  31.61000061  56.81999969
C     3.97000027  29.94999886  57.77999878
H     3.40782619  30.44812965  56.99010849
H     8.27999973  30.66999817  55.27999878
H     9.30000019  32.59999847  59.75000000
H     7.18999958  31.84000015  60.54000092
H     4.94000006  30.86000061  60.13000107
H     5.98000002  30.15999985  56.04000092
H    14.09999943  31.47999954  55.83000183
H     3.32999992  29.93999863  58.68000031
H     4.02999973  28.85999870  57.64999771
S    14.42000008  33.38000107  54.10999680
C    17.12000084  33.52000046  53.34000015
C    15.82999992  33.16999817  53.04999924
C    15.39000034  32.75000000  51.75000000
C    16.38000107  32.57999802  50.79000092
C    17.71999931  32.95000076  51.00999832
C    18.78999901  32.72000122  50.10000229
C    20.05000114  33.25000000  50.28999710
C    20.35000038  34.00000000  51.45999908
C    19.32999992  34.20000076  52.35000229
C    18.06999969  33.54000092  52.28000259
C    13.94999981  32.62000275  51.59000015
C    13.28999996  33.02000046  52.77999878
C    11.90999985  33.13000107  52.84000015
C    21.68999863  34.66999817  51.65000153
H    22.34000969  34.08427429  52.30001068
H    17.31999969  34.02000046  54.29000092
H    16.10000038  31.97000122  49.93999863
H    18.59000015  32.30999756  49.10999680
H    20.76000023  33.13000107  49.47999954
H    19.40999985  34.83000183  53.22999954
H    11.39000034  33.18000031  53.79000092
H    22.14999962  34.87999725  50.68000031
H    21.35000038  35.61000061  52.11000061
S    10.62999916  31.68999863  49.31999969
C     8.01999950  31.56999969  50.14999771
C     9.30999947  31.88999939  50.48999786
C     9.71000004  32.29000092  51.81000137
C     8.69999981  32.40999985  52.74000168
C     7.36000013  32.02999878  52.47000122
C     6.30999994  32.06999969  53.43000031
C     5.03000021  31.65999985  53.11999893
C     4.71000004  31.12999916  51.84000015
C     5.69999981  31.09000015  50.89000320
C     7.02000046  31.54000092  51.16000366
C    11.11999989  32.63999939  51.79000092
C    11.75000000  32.19000244  50.61000061
C    13.12999916  32.34999847  50.48999786
C     3.33999991  30.68000031  51.38999939
H     2.92119122  31.34015656  50.63046646
H     7.75000000  31.17000198  49.18000031
H     9.00000000  32.83000183  53.69999695
H     6.61999989  32.47999954  54.38000107
H     4.28999996  31.59000015  53.90999603
H     5.40999985  30.72000122  49.91000366
H    13.61999989  32.20999908  49.52999878
H     2.63999987  30.68000031  52.22999954
H     3.44000006  29.68000031  50.94999695
