96

S    15.19999981  32.93000031  60.30000305
C    17.84000015  33.29000092  59.45999908
C    16.57999992  32.78000259  59.20000076
C    16.14999962  32.19000244  57.97000122
C    17.12000084  32.07999802  56.98999786
C    18.45000076  32.52000046  57.22000122
C    19.52000046  32.36999893  56.27999878
C    20.79999924  32.70999908  56.63999939
C    21.14000130  33.45000076  57.80000305
C    20.13000107  33.68000031  58.69999695
C    18.82999992  33.15000153  58.46000290
C    14.70999908  32.06000137  57.90000153
C    14.01999950  32.52999878  59.03999710
C    12.63000011  32.47999954  59.18000031
C    22.56000137  33.88000107  58.09999847
H    22.97247314  33.51019669  59.03872681
H    17.90999985  33.87000275  60.38000107
H    16.86000061  31.52000046  56.10000229
H    19.32999992  31.86000061  55.34000015
H    21.61000061  32.59999847  55.91999817
H    20.06999969  34.27000046  59.61000061
H    12.20000076  32.38999939  60.17000198
H    23.11000061  33.48999786  57.22999954
H    22.67000008  34.97999954  58.11000061
S    11.46000004  31.09000015  55.59999847
C     8.82999992  30.79999924  56.56000137
C    10.11999989  31.22999954  56.76000214
C    10.50000000  31.70000076  58.04999924
C     9.61000061  31.86000061  59.09999847
C     8.23000050  31.68999863  58.81000137
C     7.25000000  31.87999916  59.82999802
C     5.96000004  31.47000122  59.61000061
C     5.59000015  30.79999924  58.41999817
C     6.53999996  30.59999847  57.44999695
C     7.86999989  31.09999847  57.55000305
C    11.92000008  32.02000046  58.06000137
C    12.56999969  31.70999908  56.84000015
C    13.96000004  31.61999893  56.79999924
C     4.18000031  30.26000023  58.30999756
H     3.63684154  30.62448692  57.43808746
H     8.51000023  30.39999962  55.59999847
H     9.94999981  32.22999954  60.06000137
H     7.55000019  32.18000031  60.83000183
H     5.21000004  31.55999947  60.40000153
H     6.26999950  30.03000069  56.56000137
H    14.50000000  31.25999832  55.93000031
H     3.61999989  30.56999969  59.20000076
H     4.32999992  29.18000031  58.29000092
S    11.87999916  29.06999969  52.49000168
C     9.35000038  28.36999893  53.37999725
C    10.71000004  28.31000137  53.57999802
C    11.28000069  27.80999947  54.79000092
C    10.44999981  27.21999931  55.72999954
C     9.04999924  27.20999908  55.48999786
C     8.19999981  26.78999901  56.55000305
C     6.84000015  26.88999939  56.37000275
C     6.23000050  27.52000046  55.25000000
C     7.04999971  28.09999847  54.31999969
C     8.46000004  27.85000038  54.36000061
C    12.71000004  28.09999847  54.84000397
C    13.15999985  28.75999832  53.67000198
C    14.47000027  29.23000145  53.61000061
C     4.73000002  27.72000122  55.21999741
H     4.26203680  27.11023140  54.44715118
H     8.88000011  28.84000015  52.51999664
H    10.86999989  27.09000015  56.72000122
H     8.64999962  26.27000046  57.39999771
H     6.21999979  26.73999977  57.25000000
H     6.61999989  28.71999931  53.54000092
H    14.80000019  29.76000023  52.71999741
H     4.33999968  27.50999832  56.22000122
H     4.61000013  28.78000069  54.98000336
S    16.11999893  27.93999863  56.98999786
C    18.71000099  28.52999878  56.05999756
C    17.35000038  28.55999947  55.86999893
C    16.79000092  29.06999969  54.65000153
C    17.59000015  29.61000061  53.66000366
C    18.98999977  29.63999939  53.88000107
C    19.86999893  30.22999954  52.93000031
C    21.21999931  30.28000069  53.18999863
C    21.80999947  29.82000160  54.40000153
C    20.95999908  29.23000145  55.31000137
C    19.55999947  29.11000061  55.07999802
C    15.36000061  28.84000015  54.61999893
C    14.85000038  28.22999954  55.79000092
C    13.56999969  27.69000053  55.86000061
C    23.29999924  29.92000198  54.61999893
H    23.57090378  30.04832268  55.66796875
H    19.05999947  28.15000153  57.02000046
H    17.10000038  30.03999901  52.78999710
H    19.38999939  30.63999939  52.04999924
H    21.86000061  30.66999817  52.39999771
H    21.27000046  28.90000153  56.29000092
H    13.25000000  27.06999969  56.69000244
H    23.69999886  30.66999817  53.92000198
H    23.68000031  28.95000076  54.27999878
