96

S    16.27000046  32.90999985  60.54000092
C    18.79999924  33.54000092  59.71000290
C    17.59000015  33.01000214  59.36000061
C    17.22999954  32.50000000  58.06000137
C    18.15999985  32.62000275  57.04999924
C    19.43000031  33.16999817  57.36999893
C    20.45999908  33.11000061  56.38999939
C    21.70000076  33.63999939  56.63000107
C    21.90000153  34.34000015  57.84999847
C    20.95999908  34.41999817  58.85000229
C    19.76000023  33.68000031  58.67000198
C    15.84000015  32.09000015  58.02999878
C    15.17000008  32.36000061  59.25000000
C    13.78999901  32.36999893  59.29000092
C    23.32999992  34.71999741  58.15999985
H    23.82093048  34.07965851  58.89283752
H    18.94000053  34.08000183  60.65000153
H    17.87999916  32.52000046  56.00000000
H    20.29000092  32.57999802  55.45000076
H    22.46999931  33.50000000  55.87999725
H    21.17000198  34.93000031  59.79000092
H    13.26000023  32.79000092  60.13999939
H    23.87000084  34.76000214  57.21000290
H    23.15999985  35.72000122  58.56999969
S    12.51999950  31.14000130  55.72000122
C     9.88000011  30.72000122  56.62000275
C    11.17000008  31.14000130  56.86000061
C    11.59000015  31.68999863  58.11999893
C    10.60999966  31.84999847  59.06999969
C     9.27999973  31.38999939  58.89999771
C     8.26000023  31.68000031  59.85000229
C     6.94000006  31.37000084  59.64000320
C     6.63999987  30.56999969  58.50000000
C     7.53999996  30.42000008  57.47000122
C     8.89000034  30.81999969  57.63000107
C    13.02999973  31.90999985  58.20000076
C    13.68000031  31.61999893  56.97000122
C    15.06000042  31.75000000  56.90999985
C     5.27999973  29.92000198  58.43999863
H     4.57010841  30.55890274  57.91468048
H     9.61999989  30.26000023  55.66999817
H    10.86999989  32.23999786  60.05000305
H     8.65999985  32.37999725  60.58000183
H     6.15999985  31.55999947  60.37000275
H     7.25000000  29.90999985  56.56000137
H    15.59999943  31.51000023  56.00000000
H     4.98000002  29.56999969  59.43999863
H     5.46999979  28.95999908  57.94000244
S    16.13999939  33.36000061  54.20999908
C    18.70000076  33.88999939  53.34999847
C    17.42000008  33.54999924  52.98999786
C    16.95999908  33.18000031  51.69000244
C    17.94000053  33.09000015  50.72000122
C    19.27000046  33.52999878  50.94999695
C    20.17999840  33.61999893  49.86000061
C    21.50000000  33.88000107  50.14999771
C    21.90000153  34.27999878  51.45999908
C    21.00000000  34.27999878  52.50000000
C    19.63999939  33.90999985  52.29000092
C    15.54999924  32.83000183  51.73999786
C    14.89999962  33.02999878  52.98999786
C    13.52000046  33.06999969  53.16999817
C    23.35000038  34.59999847  51.69000244
H    23.86080742  33.85507202  52.30013275
H    18.94000053  34.50000000  54.22000122
H    17.78000069  32.72000122  49.71000290
H    19.89999962  33.27000046  48.87000275
H    22.20999908  33.84999847  49.33000183
H    21.22999954  34.56000137  53.53000259
H    13.17000008  33.22999954  54.18000031
H    23.81999969  34.59000015  50.70000076
H    23.38000107  35.65999985  51.97999954
S    12.17000008  32.18000031  49.52999878
C     9.61999989  31.55999947  50.38999939
C    10.88999939  31.94999886  50.75000000
C    11.31999969  32.31999969  52.05999756
C    10.39999962  32.13000107  53.08000183
C     9.10000038  31.71999931  52.72999573
C     8.14000034  31.61000061  53.76999664
C     6.84000015  31.28999901  53.44999695
C     6.40999985  30.98999977  52.12999725
C     7.26999998  31.17000198  51.06999969
C     8.61999989  31.47999954  51.38999939
C    12.71999931  32.70000076  52.08000183
C    13.35000038  32.54000092  50.80999756
C    14.72000027  32.62000275  50.63000107
C     5.00999975  30.42000008  52.00000000
H     4.47680187  30.85366631  51.15399170
H     9.43000031  31.25999832  49.36000061
H    10.60999966  32.42000198  54.10999680
H     8.46000004  31.94000053  54.75999832
H     6.12999964  31.07000160  54.23999786
H     7.03000021  30.89999962  50.05000305
H    15.08999920  32.43999863  49.61999893
H     4.48999977  30.63999939  52.94000244
H     5.09999990  29.34999847  51.77999878
