96

S    14.46000004  33.29000092  60.45000076
C    17.15999985  33.51000214  59.66999817
C    15.90000057  33.02999878  59.43999863
C    15.51000023  32.40000153  58.20999908
C    16.43000031  32.26000214  57.18999863
C    17.76000023  32.72999954  57.39999771
C    18.76000023  32.78000259  56.38999939
C    20.03999901  33.23999786  56.60999680
C    20.36000061  33.81999969  57.85999680
C    19.44000053  33.81999969  58.88999939
C    18.12999916  33.31999969  58.64999771
C    14.06999969  32.19000244  58.11999893
C    13.34000015  32.63999939  59.23999786
C    11.95000076  32.57999802  59.25000000
C    21.73999977  34.40999985  58.04999924
H    22.33043671  33.93338394  58.83250809
H    17.50000000  34.02000046  60.56999969
H    16.17000008  31.80000114  56.24000168
H    18.57999992  32.34000015  55.40999985
H    20.69000053  33.27999878  55.73999786
H    19.68000031  34.13999939  59.89999771
H    11.46000004  32.93999863  60.14999771
H    22.22999954  34.61999893  57.09999847
H    21.61000061  35.42000198  58.44999695
S    10.90000057  31.07999992  55.72999954
C     8.18000031  30.93000031  56.45999908
C     9.47000027  31.30000114  56.75000000
C     9.80000019  31.87999916  58.02000046
C     8.85000038  31.87000084  59.02000046
C     7.51999950  31.44000053  58.76999664
C     6.60000038  30.95999908  59.73999786
C     5.29999971  30.62999916  59.43000031
C     4.90000010  30.38000107  58.09000015
C     5.88000011  30.48999977  57.12999725
C     7.14999962  31.07000160  57.43000031
C    11.21999931  32.18000031  58.13000107
C    11.95000076  31.73999977  56.98999786
C    13.34000015  31.77999878  56.98999786
C     3.50000000  29.84000015  57.90000153
H     3.05084085  30.53869247  57.19417953
H     7.99000025  30.50000000  55.47999954
H     8.97999954  31.87999916  60.10000229
H     6.94999981  30.95999908  60.77000046
H     4.59000015  30.48000145  60.24000168
H     5.73000002  30.17999840  56.10000229
H    13.85000038  31.40999985  56.11000061
H     2.94000006  29.93999863  58.83999634
H     3.33999991  28.78999901  57.61000061
S    11.11999989  28.88000107  52.97999954
C     8.60000038  28.02000046  53.73000336
C     9.92999935  28.12000084  54.06000137
C    10.50000000  27.73999977  55.31999969
C     9.68000031  27.25000000  56.31999969
C     8.31999969  27.06999969  55.97999954
C     7.36000013  26.63000107  56.93000031
C     6.03999996  26.38999939  56.62000275
C     5.50000000  26.76000214  55.35999680
C     6.35999966  27.32000160  54.45000076
C     7.75000000  27.46000099  54.71000290
C    11.90000057  28.12999916  55.35999680
C    12.38999939  28.82999802  54.22000122
C    13.71999931  29.18000031  54.03999710
C     4.00999975  26.70999908  55.12000275
H     3.71939516  26.76670265  54.07098770
H     8.06999969  28.52000046  52.91999817
H    10.01999950  27.01999855  57.32999802
H     7.69000006  26.50000000  57.95999908
H     5.38999987  25.95999908  57.36999893
H     6.03999996  27.65000153  53.46000290
H    14.06999969  29.76000023  53.18999863
H     3.58000016  25.79000092  55.54000092
H     3.58000016  27.50000000  55.75000000
S    15.47000027  27.95000076  57.38999939
C    17.97000122  28.85000038  56.60999680
C    16.61999893  28.81999969  56.36000061
C    16.03000069  29.31999969  55.14999771
C    16.80999947  29.86000061  54.15000153
C    18.20999908  29.76000023  54.29999924
C    19.13999939  30.30999947  53.36999893
C    20.48000145  30.38000107  53.63999939
C    21.04000092  29.84000015  54.82999802
C    20.17999840  29.40999985  55.80999756
C    18.78999901  29.31999969  55.54999924
C    14.60999966  28.97999954  55.10000229
C    14.15999985  28.25000000  56.23000336
C    12.84000015  27.84000015  56.36000061
C    22.53999901  29.89999962  55.00000000
H    22.86052704  30.34873581  55.94021225
H    18.45999908  28.61999893  57.55000305
H    16.38000107  30.28000069  53.23999786
H    18.81000137  30.76000023  52.43000031
H    21.14000130  30.78000069  52.88000107
H    20.52999878  29.13000107  56.81000137
H    12.48000050  27.11999893  57.09000015
H    22.89999962  30.45999908  54.13000107
H    23.01000214  28.90999985  54.89999771
