96

S    15.40999985  32.84000015  60.38999939
C    17.95999908  33.44000244  59.41999817
C    16.76000023  32.80999756  59.23999786
C    16.36999893  32.21999741  57.98999786
C    17.31999969  32.14999771  56.97999954
C    18.57999992  32.78000259  57.14000320
C    19.60000038  32.80999756  56.13999939
C    20.82999992  33.38999939  56.36000061
C    21.15999985  33.93000031  57.63000107
C    20.19000053  34.02000046  58.60000229
C    18.94000053  33.36000061  58.40000153
C    14.94999981  31.93000031  57.95999908
C    14.27999973  32.22999954  59.16999817
C    12.89999962  32.06999969  59.27999878
C    22.53999901  34.43999863  57.97000122
H    23.08752441  33.72893143  58.58862686
H    18.12000084  33.93000031  60.38000107
H    16.98999977  31.68000031  56.05999756
H    19.27000046  32.52999878  55.13999939
H    21.42999840  33.52999878  55.47000122
H    20.38000107  34.47999954  59.56999969
H    12.51000023  32.21999741  60.27999878
H    23.02999878  34.76000214  57.04000092
H    22.27999878  35.31999969  58.56999969
S    11.67000008  31.09999847  55.63000107
C     9.03999996  30.55999947  56.58000183
C    10.31000042  31.07000160  56.77000046
C    10.71000004  31.55999947  58.04999924
C     9.77999973  31.61000061  59.06999969
C     8.46000004  31.11999893  58.92000198
C     7.44999981  31.30000114  59.91000366
C     6.17999983  30.86999893  59.61000061
C     5.88000011  30.05000114  58.47999954
C     6.88000011  29.84999847  57.56000137
C     8.11999989  30.53999901  57.64999771
C    12.15000057  31.77000046  58.13000107
C    12.81999969  31.54000092  56.90999985
C    14.21000004  31.52000046  56.84000015
C     4.42999983  29.69000053  58.22999954
H     3.97579551  30.27195168  57.42804337
H     8.80000019  30.13999939  55.59999847
H    10.07999992  32.02000046  60.02999878
H     7.68000031  31.77999878  60.86000061
H     5.38000011  31.05999947  60.31999969
H     6.72999954  29.34000015  56.60999680
H    14.75999928  31.11000061  56.00000000
H     3.86999989  29.61999893  59.16999817
H     4.42999983  28.71999931  57.72999573
S    15.52000046  33.18999863  54.09000015
C    18.12000084  33.77000046  53.16999817
C    16.87000084  33.22999954  52.94000244
C    16.44000053  32.84000015  51.63000107
C    17.38000107  32.79999924  50.61999893
C    18.71999931  33.23999786  50.79000092
C    19.70000076  33.29000092  49.75999832
C    20.90999985  33.88999939  50.01999664
C    21.30000114  34.31999969  51.31999969
C    20.35000038  34.27000046  52.30999756
C    19.03000069  33.77000046  52.09000015
C    14.98999977  32.76000214  51.53999710
C    14.34000015  32.97000122  52.78999710
C    12.96000004  32.97000122  52.97999954
C    22.67999840  34.90999985  51.50000000
H    23.30064011  34.33216476  52.18484497
H    18.26000023  34.13999939  54.19000244
H    17.02000046  32.63000107  49.61000061
H    19.51000023  32.83000183  48.80000305
H    21.57999992  34.00000000  49.16999817
H    20.58000183  34.65999985  53.29999924
H    12.53000069  33.06000137  53.96999741
H    23.16999817  35.15000153  50.54999924
H    22.46999931  35.86999893  51.97999954
S    11.71000004  31.78999901  49.34000015
C     9.11999989  31.28999901  50.27000046
C    10.38000011  31.80999947  50.51000214
C    10.80999947  32.27000046  51.79999924
C     9.84000015  32.22999954  52.77999878
C     8.55000019  31.68000031  52.57999802
C     7.64999962  31.47000122  53.67000198
C     6.38000011  30.98999977  53.46000290
C     5.96000004  30.59999847  52.16999817
C     6.83000040  30.66999817  51.10000229
C     8.14000034  31.19999886  51.29000092
C    12.22000027  32.59999847  51.84000015
C    12.81999969  32.42000198  50.56999969
C    14.21000004  32.43999863  50.41999817
C     4.53999996  30.15999985  51.90000153
H     4.03506660  30.86406136  51.23860931
H     8.98999977  30.86000061  49.29000092
H    10.11999989  32.52000046  53.79000092
H     7.88999987  31.84000015  54.66999817
H     5.69999981  30.90999985  54.31000137
H     6.58999968  30.36000061  50.08999634
H    14.80999947  32.20999908  49.54999924
H     4.00000000  30.02000046  52.84000015
H     4.51999998  29.18000031  51.38999939
