96

S    15.03000069  32.63999939  60.80999756
C    17.71000099  32.86999893  59.92000198
C    16.39999962  32.55000305  59.68000031
C    16.02000046  32.00999832  58.40999985
C    16.95000076  31.94000053  57.38999939
C    18.30000114  32.29999924  57.62000275
C    19.27999878  32.36999893  56.59000015
C    20.56999969  32.78000259  56.77000046
C    20.95999908  33.31000137  58.02999878
C    20.05000114  33.22000122  59.06000137
C    18.71000099  32.76000214  58.92000198
C    14.59000015  31.73999977  58.37999725
C    13.89000034  32.15999985  59.54000092
C    12.51000023  32.16999817  59.65999985
C    22.39999962  33.74000168  58.22999954
H    22.87778854  33.33352280  59.12139893
H    18.11000061  33.20999908  60.87999725
H    16.59000015  31.70000076  56.38999939
H    19.04000092  31.97000122  55.59999847
H    21.28999901  32.92000198  55.97000122
H    20.36000061  33.44000244  60.07999802
H    12.02999973  32.52000046  60.56999969
H    23.06999969  33.58000183  57.38999939
H    22.27999878  34.81999969  58.40999985
S    11.26999950  31.12999916  56.05999756
C     8.64000034  30.72999954  56.83000183
C     9.89999962  31.14000130  57.18999863
C    10.29000092  31.47999954  58.53000259
C     9.28999996  31.73000145  59.45000076
C     7.92999983  31.40999985  59.20000076
C     6.89000034  31.47000122  60.17000198
C     5.68000031  30.82999992  59.99000168
C     5.46999979  30.20000076  58.74000168
C     6.42000008  30.27000046  57.75000000
C     7.72000027  30.85000038  57.90000153
C    11.72999954  31.68999863  58.60000229
C    12.39999962  31.31999969  57.41000366
C    13.78999901  31.24000168  57.34000397
C     4.23000002  29.34000015  58.61999893
H     3.57022047  29.77275848  57.86799240
H     8.43999958  30.09000015  55.97000122
H     9.46000004  32.20000076  60.40999985
H     7.23000002  31.78999901  61.14999771
H     4.96000004  30.56999969  60.76000214
H     6.10000038  29.77999878  56.84000015
H    14.18000031  30.86999893  56.39999771
H     3.70000005  29.30999947  59.56999969
H     4.42000008  28.26999855  58.43999863
S    14.75000000  32.90999985  54.40999985
C    17.43999863  33.11000061  53.67000198
C    16.17000008  32.69000244  53.36000061
C    15.80999947  32.20000076  52.06999969
C    16.84000015  32.11999893  51.14999771
C    18.15000153  32.62000275  51.38000107
C    19.19000053  32.43999863  50.43000031
C    20.45000076  32.92000198  50.72999954
C    20.69000053  33.54000092  51.97999954
C    19.79999924  33.50000000  53.02999878
C    18.47999954  33.08000183  52.70000076
C    14.37000084  32.16999817  51.90000153
C    13.64999962  32.54000092  53.06000137
C    12.25999928  32.59000015  53.06999969
C    22.06999969  34.09000015  52.22999954
H    22.68011856  33.33089828  52.71951294
H    17.54999924  33.50000000  54.68000031
H    16.72000122  31.65999985  50.17000198
H    18.93000031  32.11999893  49.43000031
H    21.31000137  32.72000122  50.08999634
H    19.96000099  34.00000000  53.97999573
H    11.84999943  32.80999756  54.05000305
H    22.50999832  34.34000015  51.25999832
H    22.06999969  35.00000000  52.84000015
S    11.18999958  31.70999908  49.34999847
C     8.51000023  31.25000000  50.17000198
C     9.73999977  31.81999969  50.37000275
C    10.05000019  32.23999786  51.70999908
C     9.04999924  32.33000183  52.65999603
C     7.75000000  31.84000015  52.43000031
C     6.70000029  31.97999954  53.39000320
C     5.42000008  31.55999947  53.09000015
C     5.19999981  30.86999893  51.86999893
C     6.19000006  30.72999954  50.91999817
C     7.51999950  31.15999985  51.18000031
C    11.49000072  32.34999847  51.93000031
C    12.22000027  32.07999802  50.75000000
C    13.60999966  32.02000046  50.72999954
C     3.77999997  30.52000046  51.45999908
H     3.40358233  31.11658478  50.62903976
H     8.31999969  30.81999969  49.19000244
H     9.39999962  32.63999939  53.64999771
H     6.83000040  32.59999847  54.27000046
H     4.69000006  31.63000107  53.88999939
H     5.91000032  30.46999931  49.91000366
H    14.17000008  31.93000031  49.79999924
H     3.07000017  30.59999847  52.29000092
H     3.97000027  29.47999954  51.18000031
