96

S    15.19999981  32.84000015  60.28999710
C    17.80999947  33.38999939  59.36000061
C    16.54000092  32.90999985  59.13000107
C    16.13000107  32.50000000  57.81999969
C    17.05000114  32.50999832  56.79000092
C    18.38000107  32.90000153  57.05999756
C    19.42000008  32.62000275  56.12999725
C    20.68000031  33.13000107  56.32999802
C    21.01000023  33.84999847  57.50999832
C    20.09000015  33.95999908  58.53000259
C    18.78999901  33.40999985  58.34000015
C    14.70000076  32.26000214  57.77999878
C    14.02999973  32.44999695  59.02000046
C    12.69000053  32.27999878  59.31000137
C    22.43000031  34.29999924  57.74000168
H    22.93478394  33.64591599  58.45096588
H    18.12000084  33.75000000  60.34000015
H    16.82999992  31.97000122  55.86999893
H    19.14999962  32.20999908  55.15999603
H    21.52000046  32.85000229  55.70000076
H    20.29999924  34.33000183  59.52999878
H    12.35999966  32.23999786  60.34000015
H    23.00000000  34.27000046  56.81000137
H    22.46000099  35.33000183  58.11000061
S    11.36999989  31.50000000  55.59999847
C     8.82000065  30.81000137  56.59000015
C    10.07999992  31.30000114  56.81000137
C    10.44999981  31.65999985  58.13999939
C     9.55000019  31.63999939  59.19000244
C     8.22000027  31.19999886  58.96999741
C     7.23000002  31.35999870  59.99000168
C     5.98000002  30.88000107  59.68999863
C     5.65000010  30.31999969  58.43000031
C     6.60000038  30.15999985  57.44999695
C     7.90000010  30.69000053  57.67000198
C    11.87000084  31.98999786  58.20999908
C    12.46999931  31.94000053  56.91999817
C    13.83999920  32.02999878  56.69000244
C     4.33999968  29.56000137  58.43000031
H     3.75656462  29.82325745  57.54772949
H     8.46000004  30.32999992  55.68000031
H     9.78999996  31.94999886  60.20000076
H     7.55999994  31.81999969  60.91999817
H     5.07000017  30.85000038  60.27999878
H     6.28999996  29.75000000  56.49000168
H    14.25000000  31.96000099  55.68999863
H     3.77999997  29.87999916  59.31999969
H     4.38000011  28.46999931  58.44999695
S    15.31999969  33.54999924  54.05000305
C    17.89999962  34.13999939  53.06999969
C    16.67000008  33.54999924  52.88999939
C    16.28000069  32.95000076  51.65999985
C    17.20000076  32.93000031  50.63000107
C    18.52000046  33.40999985  50.80999756
C    19.48999977  33.41999817  49.77000427
C    20.79000092  33.81000137  49.97000122
C    21.15999985  34.36000061  51.23000336
C    20.23999977  34.40999985  52.25000000
C    18.89000130  34.00000000  52.06999969
C    14.85999966  32.65000153  51.53999710
C    14.23999977  32.90999985  52.78999710
C    12.86000061  32.97999954  52.93000031
C    22.60000038  34.68000031  51.56000137
H    23.06259918  34.13911438  52.38555908
H    18.02000046  34.68000031  54.00000000
H    16.97000122  32.50000000  49.65000153
H    19.27999878  32.93999863  48.81000137
H    21.53000069  33.70999908  49.18000031
H    20.52999878  34.79000092  53.22999954
H    12.48999977  33.36000061  53.87000275
H    23.21000099  34.56999969  50.65000153
H    22.56999969  35.75000000  51.79999924
S    11.52999973  31.64999962  49.41999817
C     8.89999962  31.40000153  50.38999939
C    10.18000031  31.87999916  50.54000092
C    10.59000015  32.49000168  51.77000046
C     9.68000031  32.59999847  52.81000137
C     8.36000061  32.09000015  52.69000244
C     7.46000004  32.11999893  53.79000092
C     6.19999981  31.55999947  53.67000198
C     5.82999992  30.88000107  52.49000168
C     6.70000029  30.81000137  51.43000031
C     7.99000025  31.40999985  51.47999573
C    12.03999996  32.59000015  51.86000061
C    12.68000031  32.20999908  50.65000153
C    14.04999924  32.26000214  50.45999908
C     4.44000006  30.29000092  52.31999969
H     3.93345690  30.93209648  51.59942627
H     8.55000019  31.09999847  49.40000153
H    10.01000023  32.84000015  53.81000137
H     7.82000017  32.63999939  54.66999817
H     5.46000004  31.73000145  54.43999863
H     6.32000017  30.36000061  50.51000214
H    14.39000034  32.04999924  49.45000076
H     3.94000006  30.27000046  53.29999924
H     4.46000004  29.28999901  51.88000107
