96

S    15.48999977  33.29000092  60.65999985
C    18.11000061  33.65000153  59.68000031
C    16.81999969  33.18000031  59.48999786
C    16.45000076  32.61000061  58.22999954
C    17.30999947  32.50999832  57.15999985
C    18.61999893  33.02000046  57.31999969
C    19.64999962  32.84000015  56.35000229
C    20.90999985  33.32999802  56.56000137
C    21.24000168  34.01000214  57.76000214
C    20.29999924  34.15999985  58.75000000
C    19.01000023  33.59000015  58.57999802
C    15.01999950  32.31999969  58.25000000
C    14.34999943  32.76000214  59.41999817
C    12.96000004  32.73999786  59.52000046
C    22.63999939  34.50999832  58.04000092
H    23.21597862  33.87002182  58.70841599
H    18.48999977  34.10000229  60.59000015
H    17.06999969  31.87000084  56.31000137
H    19.43000031  32.36999893  55.38999939
H    21.64999962  33.43000031  55.76000214
H    20.48000145  34.71999741  59.66999817
H    12.48000050  32.72999954  60.50000000
H    23.12999916  34.66999817  57.06999969
H    22.56999969  35.47999954  58.54000092
S    11.79999924  31.25000000  56.00000000
C     9.21000004  30.88000107  56.86000061
C    10.42000008  31.48999977  57.09000015
C    10.75000000  32.11999893  58.34000015
C     9.80000019  32.16999817  59.34000015
C     8.52999973  31.61000061  59.09000015
C     7.53000021  31.54000092  60.10000229
C     6.30999994  30.93000031  59.93000031
C     5.92000008  30.61000061  58.60000229
C     6.84000015  30.62999916  57.57999802
C     8.17000008  31.09000015  57.80000305
C    12.18000031  32.36999893  58.41999817
C    12.86000061  31.84999847  57.29000092
C    14.25000000  31.73999977  57.23999786
C     4.56999969  30.03999901  58.25000000
H     4.22113085  30.28207207  57.24611282
H     9.13000011  30.23999977  55.98999786
H    10.21999931  32.50999832  60.28999710
H     7.77999973  31.87000084  61.11000061
H     5.63000011  30.84000015  60.77000046
H     6.65999985  30.06999969  56.66999817
H    14.75000000  31.34000015  56.36000061
H     3.77999997  30.26000023  58.97999573
H     4.72000027  28.95000076  58.23999786
S    15.48999977  33.58000183  54.40000153
C    18.15999985  34.00000000  53.63999939
C    16.90000153  33.52999878  53.33000183
C    16.53000069  33.13999939  52.01000214
C    17.53000069  33.01000214  51.05999756
C    18.86999893  33.31000137  51.38999939
C    19.92000008  33.06999969  50.45000076
C    21.21000099  33.45000076  50.73999786
C    21.47000122  34.04000092  52.00000000
C    20.52999878  34.22999954  52.97999954
C    19.17000008  33.91999817  52.64999771
C    15.10000038  32.88999939  51.88000107
C    14.39000034  33.25000000  53.04999924
C    13.00000000  33.25000000  53.15999985
C    22.92000008  34.36999893  52.28000259
H    23.53643036  33.52683640  52.59175873
H    18.42000008  34.18999863  54.68000031
H    17.35000038  32.43000031  50.14999771
H    19.85000038  32.57999802  49.47999954
H    22.04000092  33.27000046  50.06000137
H    20.84000015  34.52999878  53.97999573
H    12.51999950  33.59999847  54.06999969
H    23.36999893  34.76000214  51.36000061
H    22.93999863  35.16999817  53.02000046
S    11.87000084  31.81999969  49.56999969
C     9.23999977  31.59000015  50.44000244
C    10.52000046  32.00999832  50.70000076
C    10.92000008  32.43000031  52.01000214
C     9.94000053  32.54000092  52.97000122
C     8.60000038  32.13999939  52.75000000
C     7.64999962  32.09999847  53.81000137
C     6.35999966  31.68999863  53.54999924
C     5.96000004  31.25999832  52.25999832
C     6.85999966  31.34000015  51.22000122
C     8.23000050  31.65999985  51.44000244
C    12.34000015  32.76000214  52.02000046
C    13.00000000  32.34999847  50.83000183
C    14.37999916  32.47999954  50.75000000
C     4.57999992  30.73999786  51.90999985
H     4.26612711  31.12520790  50.93984604
H     8.89000034  31.28000069  49.45999908
H    10.13000011  32.85000229  53.99000168
H     7.96000004  32.38999939  54.80999756
H     5.63000011  31.60000038  54.34999847
H     6.53999996  30.86000061  50.30000305
H    14.80000019  32.29999924  49.77000427
H     3.84999990  31.01000023  52.68000031
H     4.65000010  29.64999962  51.90000153
