96

S    15.26000023  32.63000107  60.65999985
C    17.77000046  33.29000092  59.62999725
C    16.59000015  32.59000015  59.47999954
C    16.22999954  32.13999939  58.16999817
C    17.15999985  32.15999985  57.15000153
C    18.42000008  32.78000259  57.30999756
C    19.40999985  32.75000000  56.29000092
C    20.65999985  33.27000046  56.56000137
C    21.02000046  33.84999847  57.80000305
C    20.05000114  33.87000275  58.76999664
C    18.75000000  33.31999969  58.60000229
C    14.80999947  31.86000061  58.13000107
C    14.14999962  32.14999771  59.34999847
C    12.77999973  32.00999832  59.51000214
C    22.42000198  34.36999893  58.06999969
H    22.96185684  33.64990234  58.68315125
H    17.95999908  33.88000107  60.52000046
H    16.86000061  31.63000107  56.24000168
H    19.29999924  32.29999924  55.31000137
H    21.48999977  33.15999985  55.86000061
H    20.22999954  34.40000153  59.69999695
H    12.28000069  32.23999786  60.45000076
H    22.86999893  34.52000046  57.09000015
H    22.36999893  35.36999893  58.52000427
S    11.49000072  31.32999802  55.79000092
C     8.84000015  31.02999878  56.59999847
C    10.13000011  31.38000107  56.93000031
C    10.52999973  31.80999947  58.22999954
C     9.53999996  31.91999817  59.19000244
C     8.23000050  31.47999954  58.88999939
C     7.26999998  31.35000038  59.93999863
C     5.97000027  30.95000076  59.73999786
C     5.60999966  30.46999931  58.46000290
C     6.50000000  30.55999947  57.41000366
C     7.81000042  31.09999847  57.56999969
C    11.97999954  31.80000114  58.37999725
C    12.63000011  31.55999947  57.14000320
C    14.01000023  31.63000107  57.00000000
C     4.19000006  30.05000114  58.15999985
H     3.73314381  30.49257851  57.27484131
H     8.60000038  30.45999908  55.70000076
H     9.77999973  32.09999847  60.22999573
H     7.69999981  31.68000031  60.87999725
H     5.22000027  31.04000092  60.52999878
H     6.19000006  30.06999969  56.49000168
H    14.47000027  31.73000145  56.02000427
H     3.53999996  30.10000038  59.05000305
H     4.18000031  28.95999908  58.04999924
S    14.85000038  33.25999832  54.08000183
C    17.54999924  33.48999786  53.33000183
C    16.28000069  33.04000092  53.06000137
C    15.90999985  32.70999908  51.72000122
C    16.86000061  32.56000137  50.72000122
C    18.15999985  33.06000137  50.93000031
C    19.12999916  32.95000076  49.89999771
C    20.38000107  33.39999771  50.24000168
C    20.68000031  34.11999893  51.43000031
C    19.73999977  34.15999985  52.43000031
C    18.48999977  33.48999786  52.27000427
C    14.47000027  32.72000122  51.52000046
C    13.76999950  33.11000061  52.68000031
C    12.38000011  33.01000214  52.76000214
C    22.03000069  34.77999878  51.58000183
H    22.68426704  34.29641342  52.30538559
H    17.80999947  33.95999908  54.27000046
H    16.57999992  32.23999786  49.72000122
H    18.97999954  32.36000061  49.00000000
H    21.21999931  33.29999924  49.54999924
H    19.90999985  34.59999847  53.40999985
H    11.94000053  32.90000153  53.75000000
H    22.46999931  34.80999756  50.56999969
H    21.86000061  35.84000015  51.79999924
S    11.28999901  31.80999947  49.13000107
C     8.59000015  31.60000038  49.89999771
C     9.88000011  31.97000122  50.19000244
C    10.22999954  32.31999969  51.52999878
C     9.30999947  32.20999908  52.56000137
C     7.99000025  31.77000046  52.30999756
C     7.00000000  31.61000061  53.31999969
C     5.69999981  31.27000046  53.02000046
C     5.35000038  31.11999893  51.65000153
C     6.26999950  31.24000168  50.63999939
C     7.62000036  31.55999947  50.93999863
C    11.63000011  32.69000244  51.62000275
C    12.35000038  32.34999847  50.45000076
C    13.73999977  32.36000061  50.38000107
C     3.94000006  30.69000053  51.31000137
H     3.43293595  31.38989067  50.64581680
H     8.39999962  31.42000008  48.85000229
H     9.68000031  32.40000153  53.56999969
H     7.27999973  31.78999901  54.34999847
H     4.97000027  31.14000130  53.81000137
H     5.98000002  31.09999847  49.59999847
H    14.21000004  32.00999832  49.45999908
H     3.49000001  30.51000214  52.29999924
H     4.09000015  29.68000031  50.90000153
