96

S    15.21999931  32.77000046  60.47000122
C    17.89999962  33.02000046  59.65000153
C    16.63999939  32.50999832  59.43999863
C    16.22999954  32.00000000  58.16999817
C    17.17000008  32.00999832  57.15000153
C    18.45000076  32.59000015  57.25999832
C    19.50000000  32.45999908  56.31000137
C    20.69000053  33.11999893  56.47999573
C    20.96999931  33.75000000  57.71999741
C    20.06999969  33.72999954  58.75999832
C    18.81000137  33.08000183  58.56999969
C    14.78999996  31.91999817  58.00000000
C    14.09999943  32.27000046  59.19000244
C    12.74000072  32.45999908  59.36999893
C    22.32999992  34.36999893  57.88999939
H    22.83442688  33.86557007  58.71413803
H    18.26000023  33.59000015  60.51000214
H    17.02000046  31.25999832  56.38000107
H    19.27000046  31.77000046  55.50000000
H    21.37000084  33.08000183  55.63000107
H    20.36000061  34.11999893  59.72999954
H    12.23000050  32.61000061  60.31999969
H    22.89999962  34.18999863  56.97000122
H    22.26000023  35.47000122  57.88999939
S    11.51000023  31.28000069  55.79999924
C     8.88000011  31.02999878  56.58000183
C    10.13000011  31.53000069  56.88000107
C    10.48999977  31.97000122  58.18999863
C     9.50000000  32.11999893  59.15000153
C     8.19000053  31.68999863  58.85000229
C     7.21000004  31.63999939  59.88999939
C     5.89999962  31.27000046  59.71000290
C     5.64000034  30.66999817  58.44999695
C     6.54999971  30.62999916  57.42000198
C     7.86000013  31.17000198  57.55000305
C    11.94000053  32.09999847  58.27999878
C    12.63000011  31.75000000  57.09000015
C    14.00000000  31.68999863  56.86000061
C     4.26999998  30.07999802  58.22000122
H     3.90698433  30.22235870  57.20213318
H     8.78000069  30.35000038  55.73999786
H     9.81000042  32.40999985  60.14999771
H     7.57000017  31.90999985  60.87999725
H     5.12000036  31.24000168  60.47000122
H     6.38000011  30.13000107  56.46999741
H    14.48999977  31.48999977  55.91999817
H     3.60000014  30.59999847  58.92000198
H     4.39000034  29.00000000  58.36000061
S    11.80999947  29.18000031  52.70999908
C     9.22000027  28.18000031  53.29000092
C    10.55999947  28.29000092  53.59000397
C    11.02000046  27.76000023  54.84000397
C    10.15999985  27.14999962  55.72999954
C     8.76999950  27.13999939  55.45999908
C     7.76000023  26.55999947  56.27999878
C     6.40999985  26.61999893  56.03000259
C     5.95000029  27.15999985  54.79999924
C     6.88000011  27.79000092  54.01000214
C     8.27999973  27.65000153  54.20999908
C    12.43999958  28.02999878  55.01999664
C    13.01000023  28.78000069  53.95999908
C    14.37999916  28.95999908  53.85000229
C     4.46999979  27.39999962  54.54999924
H     4.10573912  26.72147560  53.77862549
H     8.78999996  28.71000099  52.44999695
H    10.54999924  26.77000046  56.66999817
H     8.00000000  26.19999886  57.28000259
H     5.73999977  26.14999962  56.75000000
H     6.44999981  28.31999969  53.15999985
H    14.75000000  29.27999878  52.87000275
H     3.79999995  27.30999947  55.41999817
H     4.36999989  28.45000076  54.25000000
S    15.80999947  27.59000015  57.27000427
C    18.47999954  27.96999931  56.37000275
C    17.12000084  28.12999916  56.19999695
C    16.64999962  28.68000031  54.95999908
C    17.46999931  29.27999878  54.03999710
C    18.86000061  29.27000046  54.31999969
C    19.78999901  29.82000160  53.39000320
C    21.14000130  29.76000023  53.63999939
C    21.65999985  29.13999939  54.79999924
C    20.78000069  28.61000061  55.72000122
C    19.37999916  28.57999992  55.47000122
C    15.19000053  28.74000168  54.97000122
C    14.59000015  28.13999939  56.10000229
C    13.26000023  27.76000023  56.12999725
C    23.12999916  29.04000092  55.13000107
H    23.47219467  29.80993843  55.82152176
H    18.88000107  27.63000107  57.32999802
H    17.17000008  29.79999924  53.13000107
H    19.37999916  30.39999962  52.56000137
H    21.77999878  30.20000076  52.88000107
H    21.09999847  28.40999985  56.73999786
H    12.97999954  27.18000031  57.00000000
H    23.71999931  29.05999947  54.20000076
H    23.19999886  28.05999947  55.61999893
