96

S    15.42000008  33.22000122  60.59000015
C    17.98999977  33.77000046  59.62999725
C    16.77999878  33.15000153  59.45000076
C    16.44000053  32.65000153  58.15000153
C    17.40999985  32.42000198  57.18999863
C    18.71000099  32.88999939  57.45999908
C    19.76000023  32.57999802  56.53999710
C    21.00000000  33.13000107  56.79000092
C    21.25999832  34.01000214  57.88000107
C    20.25000000  34.33000183  58.75999832
C    18.98999977  33.68999863  58.61999893
C    15.00000000  32.44999695  58.09999847
C    14.32000065  32.63999939  59.33000183
C    12.93000031  32.62000275  59.43000031
C    22.63999939  34.57999802  58.08000183
H    23.12922287  34.06950378  58.90955353
H    17.95999908  34.59999847  60.33000183
H    17.12000084  32.04000092  56.22000122
H    19.55000114  32.07999802  55.59999847
H    21.70000076  33.02999878  55.97000122
H    20.36000061  35.09999847  59.52000046
H    12.46999931  32.81999969  60.38999939
H    23.26000023  34.48999786  57.18000031
H    22.67999840  35.65999985  58.27999878
S    11.69000053  31.35999870  55.89000320
C     9.02999973  30.95999908  56.70999908
C    10.27999973  31.50000000  56.95000076
C    10.70000076  32.04000092  58.20999908
C     9.73999977  32.14999771  59.20000076
C     8.43000031  31.67000008  58.94000244
C     7.50999975  31.63000107  60.02999878
C     6.23000050  31.14999962  59.87999725
C     5.75000000  30.73999786  58.61000061
C     6.69000053  30.55999947  57.63000107
C     8.01999950  31.07000160  57.70000076
C    12.13999939  32.20999908  58.34999847
C    12.81000042  31.96000099  57.12999725
C    14.19000053  32.13999939  57.00000000
C     4.38000011  30.17999840  58.29999924
H     4.01860666  30.69020271  57.40714645
H     8.97000027  30.30999947  55.84999847
H     9.98999977  32.45999908  60.20999908
H     7.88000011  32.06000137  60.96000290
H     5.59999990  31.25999832  60.76000214
H     6.34999990  29.94999886  56.79999924
H    14.60999966  31.94999886  56.02000427
H     3.65999985  30.39999962  59.09999847
H     4.61000013  29.11999893  58.18000031
S    12.27000046  29.13000107  52.81000137
C     9.70000076  28.39999962  53.67000198
C    11.05999947  28.39999962  53.88000107
C    11.67000008  27.86000061  55.06000137
C    10.88000107  27.22999954  56.00999832
C     9.47000027  27.27999878  55.89000320
C     8.56000042  26.75000000  56.84999847
C     7.21000004  26.68000031  56.60999680
C     6.63000011  27.37999916  55.51000214
C     7.49000025  27.96999931  54.61999893
C     8.89999962  27.81999969  54.68999863
C    13.07000065  28.22999954  55.22999573
C    13.50999928  28.90999985  54.06999969
C    14.80999947  29.36000061  53.92000198
C     5.13000011  27.46999931  55.38999939
H     4.72400761  26.96429253  54.51391220
H     9.34000015  28.95999908  52.81000137
H    11.35000038  26.93000031  56.93999863
H     8.97000027  26.25000000  57.72999573
H     6.61999989  26.25000000  57.41000366
H     6.98000002  28.50000000  53.81000137
H    15.24000072  29.75000000  53.00000000
H     4.65999985  27.09000015  56.31000137
H     4.86999989  28.52999878  55.40999985
S    16.57999992  28.03999901  57.22999954
C    19.12999916  28.64000130  56.25999832
C    17.77000046  28.69999886  56.10000229
C    17.18000031  29.37000084  54.98000336
C    17.97999954  29.86999893  53.96999741
C    19.38999939  29.77000046  54.09000015
C    20.27000046  30.22000122  53.06000137
C    21.61000061  30.35000038  53.34000015
C    22.21999931  29.77000046  54.48999786
C    21.38999939  29.11999893  55.37000275
C    19.97999954  29.07999992  55.20000076
C    15.73999977  29.18000031  54.94999695
C    15.27999973  28.50000000  56.11000061
C    13.99000072  28.02999878  56.26999664
C    23.71000099  29.77000046  54.77000427
H    23.93080711  30.16887856  55.76007462
H    19.60000038  28.21000099  57.14000320
H    17.53000069  30.29999924  53.08000183
H    19.90999985  30.59000015  52.11000061
H    22.20000076  30.97999954  52.69000244
H    21.80999947  28.62999916  56.24000168
H    13.76999950  27.29000092  57.02999878
H    24.27999878  30.32999992  54.02999878
H    24.05999947  28.75000000  54.54999924
