96

S    15.76000023  33.13000107  60.35999680
C    18.43000031  33.47999954  59.48999786
C    17.14999962  33.02999878  59.26000214
C    16.72000122  32.52999878  57.97999954
C    17.71000099  32.29000092  57.04999924
C    19.05999947  32.59999847  57.32999802
C    20.09000015  32.29999924  56.38999939
C    21.40000153  32.70999908  56.53999710
C    21.75000000  33.29000092  57.78999710
C    20.82999992  33.52000046  58.79000092
C    19.45000076  33.29999924  58.52000427
C    15.27999973  32.34000015  57.90999985
C    14.60999966  32.56000137  59.13999939
C    13.23999977  32.43999863  59.33000183
C    23.09999847  33.95999908  57.88999939
H    23.67041016  33.58210373  58.73848343
H    18.63999939  34.08000183  60.37000275
H    17.39999962  31.91999817  56.06999969
H    19.78000069  31.96000099  55.40999985
H    22.10000038  32.93999863  55.73999786
H    21.11000061  34.00000000  59.72000122
H    12.76000023  32.77000046  60.25000000
H    23.62999916  33.82999802  56.93999863
H    22.88000107  35.02999878  58.06000137
S    11.96000004  31.47999954  55.63999939
C     9.40999985  30.90999985  56.62000275
C    10.64000034  31.47999954  56.83000183
C    10.98000050  31.91999817  58.15000153
C    10.00000000  31.90999985  59.13000107
C     8.67000008  31.48999977  58.88000107
C     7.69999981  31.40000153  59.91000366
C     6.42000008  30.95000076  59.71000290
C     6.06999969  30.42000008  58.43999863
C     7.04999971  30.42000008  57.47000122
C     8.38000011  30.88999939  57.60000229
C    12.42000008  32.11000061  58.25000000
C    13.03999996  31.87000084  57.00000000
C    14.42999935  31.84999847  56.90999985
C     4.76999998  29.71999931  58.13000107
H     4.22465611  30.20868492  57.32260513
H     9.22000027  30.42000008  55.66999817
H    10.25000000  32.04999924  60.18000031
H     7.95000029  31.80999947  60.89000320
H     5.75999975  30.76999855  60.56000137
H     6.85999966  29.96999931  56.49000168
H    14.85999966  31.32999802  56.06999969
H     4.21999979  29.79999924  59.06999969
H     4.92000008  28.64000130  58.04000092
S    12.03999996  29.20999908  52.84000015
C     9.53999996  28.28000069  53.72000122
C    10.90999985  28.29999924  53.87000275
C    11.51999950  27.67000008  55.00000000
C    10.69000053  27.10000038  55.96000290
C     9.28999996  27.04000092  55.79999924
C     8.42000008  26.34000015  56.69000244
C     7.05999947  26.37000084  56.47999573
C     6.48999977  26.94000053  55.31000137
C     7.26999998  27.70000076  54.47000122
C     8.67000008  27.72999954  54.69999695
C    12.94000053  27.98000145  55.01999664
C    13.38000107  28.75999832  53.92000198
C    14.65000057  29.33000183  53.86000061
C     4.98000002  26.98999786  55.19000244
H     4.60314178  26.72690964  54.20163727
H     9.15000057  28.80000114  52.84999847
H    11.05000019  26.65999985  56.88000107
H     8.88000011  25.97999954  57.60000229
H     6.37000036  26.04000092  57.25000000
H     6.96000004  28.26999855  53.60000229
H    14.91000080  30.10000038  53.15000153
H     4.61000013  26.35000038  56.00000000
H     4.65999985  28.02999878  55.33000183
S    16.36000061  27.69000053  57.02000046
C    18.90999985  28.59999847  56.31000137
C    17.56999969  28.52999878  56.04000092
C    17.00000000  29.31999969  54.98000336
C    17.88999939  29.86999893  54.08000183
C    19.29999924  29.71999931  54.16999817
C    20.22000122  30.17000008  53.18000031
C    21.56999969  30.09000015  53.40999985
C    22.07999992  29.61000061  54.65000153
C    21.22999954  29.11999893  55.61999893
C    19.82999992  29.13000107  55.37000275
C    15.57000065  29.05999947  54.87999725
C    15.06999969  28.26000023  55.93999863
C    13.82999992  27.65999985  56.04999924
C    23.57000160  29.40000153  54.79000092
H    24.01317978  29.79314232  55.70495224
H    19.31999969  28.09000015  57.18000031
H    17.50000000  30.17000008  53.11000061
H    19.85999870  30.61000061  52.25000000
H    22.27000046  30.40999985  52.64999771
H    21.54000092  28.82999802  56.62000275
H    13.40000057  27.06999969  56.86000061
H    24.13000107  29.89999962  53.99000168
H    23.78999901  28.31999969  54.79000092
