96

S    16.20000076  33.04000092  60.77000046
C    18.86000061  33.02999878  59.94999695
C    17.56000137  32.66999817  59.68999863
C    17.17000008  32.25000000  58.37999725
C    18.18000031  31.98999786  57.47000122
C    19.54000092  32.30999756  57.70999908
C    20.48000145  32.34999847  56.63999939
C    21.67000008  33.02999878  56.83000183
C    22.01999855  33.54000092  58.11000061
C    21.18000031  33.43000031  59.19000244
C    19.88000107  32.86999893  58.97999573
C    15.72000027  32.20000076  58.27999878
C    15.06999969  32.61000061  59.47000122
C    13.68999958  32.69000244  59.61000061
C    23.40999985  34.10000229  58.31999969
H    23.94985962  33.48200226  59.03744507
H    19.02000046  33.54000092  60.90000153
H    17.92000008  31.40000153  56.59000015
H    20.19000053  32.04999924  55.63999939
H    22.43000031  32.99000168  56.05999756
H    21.53000069  33.94000244  60.08999634
H    13.22000027  32.95000076  60.56000137
H    23.98999977  34.08000183  57.38999939
H    23.21000099  35.15000153  58.57999802
S    12.41000080  31.67000008  56.00000000
C     9.76000023  31.31000137  56.81000137
C    11.00999928  31.80999947  57.06999969
C    11.46000004  32.23999786  58.36000061
C    10.46000004  32.34000015  59.31000137
C     9.13999939  31.90999985  59.03999710
C     8.13000011  32.13000107  60.02999878
C     6.83000040  31.76000214  59.81999969
C     6.48000002  31.12999916  58.59000397
C     7.40000010  30.89999962  57.60000229
C     8.76999950  31.22999954  57.81999969
C    12.89999962  32.36999893  58.50000000
C    13.56999969  31.93000031  57.31999969
C    14.93999958  31.71999931  57.22000122
C     5.05000019  30.65999985  58.40999985
H     4.49206924  31.34668350  57.77338409
H     9.57999992  30.97999954  55.79000092
H    10.71000004  32.56999969  60.34000015
H     8.47000027  32.56000137  60.97000122
H     6.11999989  31.78999901  60.63999939
H     7.23000002  30.59000015  56.56999969
H    15.34999943  31.28000069  56.31999969
H     4.48000002  30.63999939  59.34999847
H     5.03999996  29.64999962  57.98999786
S    12.68000031  29.51999855  52.93000031
C    10.10000038  29.00000000  53.54999924
C    11.39999962  28.90000153  53.99000168
C    11.89000034  28.23999786  55.15999603
C    10.93999958  27.60000038  55.93999863
C     9.57999992  27.72000122  55.59999847
C     8.59000015  27.07999992  56.40999603
C     7.26000023  27.23999977  56.11000061
C     6.81999969  27.93999863  54.95999908
C     7.76999998  28.39999962  54.08000183
C     9.15999985  28.32999992  54.36999893
C    13.32999992  28.38999939  55.30000305
C    13.86999989  29.02000046  54.15000153
C    15.24000072  29.23999977  54.03999710
C     5.38000011  28.36999893  54.73999786
H     4.92988586  27.71983528  53.98980713
H     9.88000011  29.56000137  52.63999939
H    11.16000080  27.03000069  56.84000015
H     8.88000011  26.54000092  57.29999924
H     6.54999971  27.00000000  56.90000153
H     7.50000000  29.09000015  53.27000046
H    15.62000084  30.00999832  53.36999893
H     4.92000008  28.26000023  55.72999954
H     5.42000008  29.43000031  54.47000122
S    16.87000084  27.72000122  57.29000092
C    19.44000053  28.32999992  56.38999939
C    18.07999992  28.40999985  56.19999695
C    17.52000046  29.02000046  55.02999878
C    18.30000114  29.56000137  54.02000046
C    19.68000031  29.61999893  54.31999969
C    20.55000114  30.17999840  53.34000015
C    21.88999939  30.30999947  53.56999969
C    22.43999863  29.89999962  54.81999969
C    21.65999985  29.30000114  55.77000046
C    20.29000092  29.02000046  55.48999786
C    16.07999992  28.80000114  55.06000137
C    15.55999947  28.03999901  56.13999939
C    14.19000053  27.84000015  56.25999832
C    23.94000053  29.93000031  54.97000122
H    24.27447891  29.39625549  55.85957336
H    19.78000069  27.86999893  57.31999969
H    17.85000038  30.10000038  53.18999863
H    20.07999802  30.36000061  52.36999893
H    22.56000137  30.75000000  52.84000015
H    22.09000015  28.84000015  56.65999985
H    13.81999969  27.27000046  57.11000061
H    24.30000114  30.95999908  54.97000122
H    24.44000053  29.51000023  54.08000183
