96

S    15.19000053  33.22000122  60.31000137
C    17.79000092  33.72000122  59.45000076
C    16.54999924  33.20000076  59.18000031
C    16.14999962  32.56000137  57.95999908
C    17.19000053  32.47000122  57.04000092
C    18.47999954  33.01000214  57.21000290
C    19.45999908  32.86999893  56.18000031
C    20.69999886  33.38000107  56.45000076
C    21.09000015  34.02000046  57.65999603
C    20.13999939  34.09000015  58.64999771
C    18.81000137  33.61999893  58.47000122
C    14.73999977  32.23999786  57.84000015
C    14.11999893  32.50999832  59.09000015
C    12.75000000  32.42000198  59.29999924
C    22.50000000  34.54999924  57.81999969
H    23.09575081  33.89750671  58.45830536
H    17.94000053  34.18000031  60.43000031
H    16.97999954  32.02999878  56.06999969
H    19.11999893  32.34000015  55.28999710
H    21.45000076  33.34999847  55.65999985
H    20.36999893  34.38000107  59.66999817
H    12.28999996  32.68000031  60.25000000
H    22.96999931  34.72999954  56.84999847
H    22.32999992  35.52999878  58.27999878
S    11.49000072  31.38000107  55.65999985
C     8.89999962  30.92000008  56.53999710
C    10.14999962  31.42999840  56.81000137
C    10.52999973  31.91999817  58.09999847
C     9.55000019  31.96000099  59.08000183
C     8.22000027  31.54000092  58.83999634
C     7.23999977  31.55999947  59.86999893
C     5.97000027  31.09999847  59.61999893
C     5.59000015  30.62999916  58.33000183
C     6.57999992  30.52000046  57.37999725
C     7.90999985  30.98999977  57.55000305
C    11.97000027  32.09000015  58.18000031
C    12.63000011  31.80000114  56.95999908
C    14.00000000  31.87000084  56.70999908
C     4.25000000  30.03000069  57.98999786
H     3.73423457  30.55282974  57.18455505
H     8.71999931  30.45000076  55.58000183
H     9.85000038  32.06000137  60.12000275
H     7.48000050  32.09999847  60.77999878
H     5.25000000  31.07000160  60.43000031
H     6.44999981  29.96000099  56.45000076
H    14.52999973  31.67000008  55.79000092
H     3.53999996  29.89000130  58.81000137
H     4.30999994  29.00000000  57.62000275
S    15.78999996  33.41999817  53.90999603
C    18.34000015  33.95999908  52.90000153
C    17.09000015  33.43000031  52.70000076
C    16.64999962  32.99000168  51.40999603
C    17.56000137  32.90000153  50.37000275
C    18.89000130  33.34000015  50.58000183
C    19.89999962  33.36000061  49.58000183
C    21.14000130  33.93000031  49.72999954
C    21.54999924  34.38999939  51.00999832
C    20.62000084  34.36999893  52.02999878
C    19.27999878  33.91999817  51.84000015
C    15.19999981  32.79000092  51.38999939
C    14.60000038  33.11999893  52.63000107
C    13.22999954  33.00000000  52.83000183
C    22.98999977  34.81999969  51.16000366
H    23.37457466  34.28586578  52.02885437
H    18.60000038  34.36999893  53.87000275
H    17.28999901  32.57999802  49.36999893
H    19.63999939  33.02999878  48.57999802
H    21.75000000  34.01000214  48.83999634
H    20.92000008  34.70999908  53.01000214
H    12.69999981  32.97999954  53.77999878
H    23.59999847  34.79000092  50.26000214
H    22.95999908  35.86999893  51.47999573
S    11.84999943  32.14999771  49.19000244
C     9.26000023  31.75000000  50.10000229
C    10.52999973  32.22999954  50.35999680
C    10.93999958  32.65999985  51.65999985
C     9.98999977  32.79000092  52.65999603
C     8.71000004  32.22999954  52.48000336
C     7.73999977  32.14999771  53.52000427
C     6.46000004  31.75000000  53.20000076
C     6.09000015  31.11999893  51.98999786
C     7.03999996  31.18999863  51.00000000
C     8.31999969  31.78999901  51.16000366
C    12.38000011  32.85000229  51.72000122
C    13.00000000  32.62000275  50.45999908
C    14.37000084  32.52999878  50.30000305
C     4.63000011  30.75000000  51.81000137
H     4.09442663  31.41411209  51.13160706
H     9.15000057  31.17000198  49.19000244
H    10.26999950  33.04000092  53.68000031
H     7.86999989  32.70000076  54.45000076
H     5.66999960  31.86000061  53.94000244
H     6.83000040  30.71000099  50.05000305
H    14.77000046  32.29999924  49.31000137
H     4.11999989  30.69999886  52.77999878
H     4.51999998  29.76000023  51.33999634
