96

S    15.93999958  32.79000092  60.24000168
C    18.60000038  33.15000153  59.38999939
C    17.32999992  32.69000244  59.13999939
C    17.00000000  32.29999924  57.80000305
C    17.98999977  32.16999817  56.84999847
C    19.31999969  32.59999847  57.09000015
C    20.32999992  32.63999939  56.09000397
C    21.61999893  32.97999954  56.44000244
C    21.94999886  33.34000015  57.77000046
C    20.98999977  33.34000015  58.75000000
C    19.63999939  33.02999878  58.43000031
C    15.55999947  32.13999939  57.70000076
C    14.85000038  32.49000168  58.87000275
C    13.47000027  32.54000092  59.01000214
C    23.32999992  33.81999969  58.15999985
H    23.90597725  33.18002701  58.82841873
H    18.96999931  33.50000000  60.34999847
H    17.81999969  31.47000122  56.03000259
H    20.00999832  32.36000061  55.08999634
H    22.34000015  33.18000031  55.65999985
H    21.25999832  33.50000000  59.79000092
H    12.96000004  32.57999802  59.97000122
H    23.81000137  33.90999985  57.16999817
H    23.21000099  34.79000092  58.64999771
S    12.27000046  31.44000053  55.34999847
C     9.63999939  31.07999992  56.35000229
C    10.90000057  31.61000061  56.46999741
C    11.30000019  32.16999817  57.71999741
C    10.39000034  32.47000122  58.72000122
C     9.07999992  31.94999886  58.59000397
C     8.02999973  32.07999802  59.54999924
C     6.77999973  31.53000069  59.41999817
C     6.46000004  30.79999924  58.23999786
C     7.42000008  30.62000084  57.28000259
C     8.71000004  31.21000099  57.41000366
C    12.75000000  32.20000076  57.85999680
C    13.40000057  31.81999969  56.65999985
C    14.78999996  31.71999931  56.60999680
C     5.10999966  30.13000107  58.15000153
H     4.45519018  30.72075272  57.50942612
H     9.27999973  30.59999847  55.45000076
H    10.84000015  32.88999939  59.61999893
H     8.36999989  32.63000107  60.41999817
H     6.07999992  31.81999969  60.20000076
H     7.28999996  30.15000153  56.31000137
H    15.29999924  31.40000153  55.70999908
H     4.78999996  30.15000153  59.19000244
H     5.29999971  29.11000061  57.78999710
S    12.23999977  29.11000061  52.49000168
C     9.64999962  28.62999916  53.31999969
C    10.98999977  28.46999931  53.57999802
C    11.50000000  27.86000061  54.77000427
C    10.62000084  27.60999870  55.79999924
C     9.22999954  27.63999939  55.52999878
C     8.23000050  27.23999977  56.46999741
C     6.89000034  27.32000160  56.20999908
C     6.39999962  27.86999893  55.00000000
C     7.32999992  28.25000000  54.06000137
C     8.73000050  28.16999817  54.29000092
C    12.94000053  28.08000183  54.86000061
C    13.47000027  28.68000031  53.68999863
C    14.77000046  29.17000008  53.66000366
C     4.96000004  28.29999924  54.84000397
H     4.45541096  27.65327454  54.12220383
H     9.28999996  28.95999908  52.34000397
H    10.98000050  27.34000015  56.79000092
H     8.63000011  27.00000000  57.45999908
H     6.25000000  27.10000038  57.05999756
H     6.94000006  28.74000168  53.16999817
H    15.29000092  29.50000000  52.76000214
H     4.39000034  28.19999886  55.77000046
H     4.86000013  29.37999916  54.68999863
S    16.46000099  28.09000015  57.05999756
C    19.02000046  28.80000114  56.14999771
C    17.68000031  28.67000198  55.90999985
C    17.11000061  29.14999962  54.68000031
C    17.94999886  29.54999924  53.66000366
C    19.34999847  29.54000092  53.82999802
C    20.20000076  29.90999985  52.74000168
C    21.52000046  30.20999908  52.95999908
C    22.07999992  29.84000015  54.22000122
C    21.28000069  29.53000069  55.28999710
C    19.88999939  29.28999901  55.13999939
C    15.67000008  28.90999985  54.69999695
C    15.15999985  28.28000069  55.86000061
C    13.81000042  27.95999908  55.94999695
C    23.57000160  29.96999931  54.47000122
H    23.94114876  29.66308975  55.44783401
H    19.44000053  28.39999962  57.06999969
H    17.51000023  29.94999886  52.75000000
H    19.76000023  30.25000000  51.79999924
H    22.18000031  30.76999855  52.30999756
H    21.68000031  29.57999992  56.30000305
H    13.48999977  27.42000198  56.84000015
H    23.90000153  31.01000023  54.45999908
H    24.09000015  29.44000053  53.66000366
