96

S    15.00000000  33.43000031  60.27999878
C    17.68000031  33.59999847  59.43000031
C    16.38000107  33.18999863  59.19000244
C    16.03000069  32.62000275  57.93000031
C    16.97000122  32.55000305  56.91999817
C    18.30000114  32.95999908  57.16999817
C    19.37999916  32.85000229  56.25999832
C    20.66999817  33.27000046  56.52000046
C    21.01000023  33.82999802  57.77999878
C    20.00000000  33.98999786  58.70999908
C    18.68999863  33.51000214  58.44999695
C    14.60999966  32.30999756  57.87000275
C    13.96000004  32.63999939  59.09000015
C    12.57999992  32.52999878  59.20000076
C    22.37999916  34.33000183  58.16999817
H    22.69415474  33.76594925  59.04820633
H    17.95999908  34.26000214  60.25000000
H    16.57999992  32.26000214  55.93999863
H    19.13999939  32.63000107  55.21999741
H    21.35999870  33.01000214  55.72000122
H    20.15000153  34.43000031  59.68999863
H    12.13000107  32.97000122  60.08999634
H    22.98999977  34.20000076  57.27000427
H    22.30999947  35.42000198  58.34000015
S    11.44999981  31.09000015  55.63999939
C     8.76999950  31.07000160  56.24000168
C    10.03000069  31.47999954  56.62000275
C    10.39000034  31.93000031  57.93000031
C     9.32999992  32.09000015  58.81000137
C     8.01000023  31.71999931  58.46000290
C     6.91999960  31.83000183  59.36999893
C     5.65000010  31.40999985  59.06000137
C     5.38000011  30.81000137  57.80000305
C     6.38999987  30.68000031  56.88000107
C     7.69000006  31.19999886  57.15000153
C    11.82999992  32.07999802  58.09999847
C    12.51999950  31.70999908  56.91999817
C    13.89000034  31.80999947  56.77999878
C     3.98999977  30.27000046  57.51999664
H     3.50020552  30.95855331  56.83145142
H     8.69000053  30.45000076  55.34999847
H     9.56999969  32.21999741  59.86000061
H     7.21000004  32.06999969  60.38999939
H     4.88999987  31.24000168  59.79999924
H     6.25000000  30.23999977  55.90000153
H    14.42000008  31.44000053  55.90000153
H     3.38999987  30.35000038  58.43000031
H     3.98999977  29.21999931  57.18000031
S    14.60999966  33.62999725  54.06000137
C    17.32999992  33.94000244  53.29999924
C    16.04999924  33.52000046  53.02999878
C    15.67000008  33.02000046  51.73999786
C    16.61999893  33.11000061  50.72999954
C    17.97000122  33.45999908  50.96000290
C    19.03000069  33.34000015  50.01999664
C    20.35000038  33.62999725  50.31000137
C    20.69000053  34.08000183  51.60999680
C    19.68000031  34.26000214  52.51999664
C    18.31999969  33.90000153  52.29000092
C    14.23999977  32.80999756  51.58000183
C    13.50999928  33.13999939  52.75000000
C    12.13999939  32.97999954  52.84000015
C    22.04999924  34.65999985  51.95000076
H    22.55998611  34.15709686  52.77164459
H    17.69000053  34.27999878  54.26000214
H    16.29999924  32.80999756  49.73999786
H    18.79999924  32.95000076  49.02999878
H    21.05999947  33.59000015  49.48999786
H    20.03000069  34.73999786  53.43000031
H    11.67000008  33.09999847  53.81000137
H    22.53999901  34.66999817  50.97000122
H    21.88999939  35.72000122  52.15999985
S    11.07999992  32.13999939  49.09000015
C     8.30999947  31.94000053  49.82999802
C     9.63000011  32.16999817  50.11000061
C    10.03000069  32.56000137  51.43000031
C     9.07999992  32.85000229  52.38999939
C     7.72000027  32.47999954  52.18999863
C     6.70000029  32.44999695  53.18000031
C     5.38000011  32.23999786  52.85999680
C     5.07999992  31.78999901  51.53999710
C     6.01999998  31.65999985  50.54999924
C     7.35000038  32.09000015  50.86000061
C    11.46999931  32.63000107  51.65999985
C    12.18999958  32.40000153  50.45000076
C    13.56999969  32.45999908  50.40000153
C     3.65999985  31.42999840  51.16000366
H     3.29666710  32.15666199  50.43333435
H     7.97999954  31.57999992  48.85000229
H     9.38000011  33.15999985  53.37999725
H     6.91999960  32.83000183  54.16999817
H     4.57999992  32.34000015  53.57999802
H     5.88000011  31.25999832  49.54999924
H    14.13000011  32.34000015  49.47999954
H     3.09999990  31.42999840  52.09999847
H     3.74000025  30.43000031  50.72000122
