96

S    15.17000008  32.55000305  60.05000305
C    17.76000023  33.20000076  59.16999817
C    16.50000000  32.72000122  58.88999939
C    16.02000046  32.52999878  57.55000305
C    17.01000023  32.65000153  56.59000015
C    18.38000107  32.93000031  56.84999847
C    19.44000053  32.80999756  55.90999985
C    20.73999786  33.20999908  56.11000061
C    21.09000015  33.68999863  57.39999771
C    20.15000153  33.62999725  58.39000320
C    18.78000069  33.27000046  58.18999863
C    14.60000038  32.21999741  57.47000122
C    13.99000072  32.34999847  58.74000168
C    12.61999989  32.22999954  58.95999908
C    22.44999886  34.27000046  57.72999573
H    22.96167374  33.70858002  58.51172256
H    18.01000023  33.55999756  60.15999603
H    16.95999908  32.27999878  55.56999969
H    19.06999969  32.62000275  54.91000366
H    21.42999840  33.34999847  55.28999710
H    20.55000114  33.68999863  59.40000153
H    12.13000107  32.30999756  59.93000031
H    23.09000015  34.27000046  56.84000015
H    22.34000015  35.29999924  58.08000183
S    11.18000031  31.18999863  55.40000153
C     8.56999969  30.86000061  56.38999939
C     9.86999989  31.22999954  56.59999847
C    10.38000011  31.64999962  57.87000275
C     9.48999977  31.56999969  58.93000031
C     8.14999962  31.14999962  58.77999878
C     7.26000023  31.18999863  59.88999939
C     5.91000032  30.94000053  59.77000427
C     5.47999954  30.46999931  58.50000000
C     6.28999996  30.45999908  57.38999939
C     7.63999987  30.92000008  57.45999908
C    11.79999924  31.96000099  57.85999680
C    12.38000011  31.73999977  56.58000183
C    13.75000000  31.84999847  56.42000198
C     4.03999996  30.02000046  58.36000061
H     3.52862954  30.46745110  57.50771713
H     8.30999947  30.36000061  55.45000076
H     9.92000008  31.90000153  59.87999725
H     7.64999962  31.32999802  60.90000153
H     5.18000031  30.97999954  60.56999969
H     6.01999998  30.17000008  56.38000107
H    14.09999943  31.77000046  55.38999939
H     3.40999985  30.10000038  59.25000000
H     4.15000010  28.94000053  58.25000000
S    11.10999966  29.18000031  52.48000336
C     8.47000027  28.36999893  53.30999756
C     9.84000015  28.36999893  53.43000031
C    10.53999996  27.81999969  54.54999924
C     9.77999973  27.15999985  55.50000000
C     8.38000011  27.06000137  55.31999969
C     7.59000015  26.42999840  56.31999969
C     6.21000004  26.44000053  56.29000092
C     5.55000019  27.06000137  55.20000076
C     6.25000000  27.65000153  54.16999817
C     7.67000008  27.56999969  54.18000031
C    11.97999954  27.95000076  54.62999725
C    12.43000031  28.81999969  53.61000061
C    13.75000000  29.21999931  53.41999817
C     4.03999996  27.04000092  55.15999603
H     3.70684576  26.09015465  54.74178314
H     8.05999947  28.98999977  52.51999664
H    10.22999954  26.63999939  56.33999634
H     8.14999962  25.81000137  57.01000214
H     5.66999960  25.79000092  56.97000122
H     5.75999975  28.23999786  53.40999985
H    13.96999931  29.82000160  52.54000092
H     3.58999991  27.20999908  56.14999771
H     3.75999975  27.85000038  54.48999786
S    15.57000065  27.69000053  56.55000305
C    18.07999992  28.75999832  55.91999817
C    16.75000000  28.59999847  55.59999847
C    16.17000008  29.04999924  54.36999893
C    17.01000023  29.67000008  53.47000122
C    18.39999962  29.79000092  53.68000031
C    19.22999954  30.27000046  52.63000107
C    20.56999969  30.38000107  52.91999817
C    21.07000160  30.12000084  54.22000122
C    20.29000092  29.63000107  55.25000000
C    18.90999985  29.43000031  54.98000336
C    14.73000050  28.80000114  54.33000183
C    14.26000023  27.98999977  55.38999939
C    12.97999954  27.46000099  55.47999954
C    22.53000069  30.36000061  54.52000046
H    22.91407585  29.81233788  55.38061142
H    18.48999977  28.09000015  56.66999817
H    16.63999939  30.06000137  52.51999664
H    18.84000015  30.58000183  51.65999985
H    21.18000031  30.62000084  52.04999924
H    20.72999954  29.23999977  56.16000366
H    12.69999981  26.68999863  56.18999863
H    22.65000153  31.42000008  54.75999832
H    23.15000153  30.20999908  53.62999725
