96

S    15.31000042  33.22999954  60.34000015
C    17.89999962  33.59999847  59.34999847
C    16.62999916  33.08000183  59.16999817
C    16.25000000  32.27000046  58.04999924
C    17.21999931  32.20000076  57.06999969
C    18.53000069  32.72000122  57.18000031
C    19.59000015  32.52000046  56.25000000
C    20.81999969  33.11999893  56.44000244
C    21.17000198  33.82999802  57.62000275
C    20.22999954  33.90999985  58.62999725
C    18.92000008  33.40999985  58.39000320
C    14.80999947  32.09000015  57.98999786
C    14.17000008  32.52999878  59.18000031
C    12.79999924  32.70000076  59.31999969
C    22.56999969  34.36999893  57.78999710
H    23.03964424  33.85766220  58.62966537
H    18.20999908  34.18999863  60.20000076
H    17.01000023  31.63000107  56.17000198
H    19.37999916  31.91999817  55.37000275
H    21.57999992  32.93000031  55.70000076
H    20.42000008  34.50000000  59.52000046
H    12.28000069  33.09000015  60.20000076
H    23.09000015  34.18000031  56.84999847
H    22.55000114  35.43999863  58.04000092
S    11.54000092  31.28999901  55.77000046
C     8.94999981  31.09999847  56.72999954
C    10.21999931  31.60000038  56.90999985
C    10.54999924  32.25000000  58.13999939
C     9.61999989  32.38999939  59.15000153
C     8.30000019  31.90999985  58.95999908
C     7.35000038  31.96000099  60.02999878
C     6.17999983  31.25000000  59.91000366
C     5.88999987  30.45000076  58.76999664
C     6.76000023  30.43999863  57.70999908
C     7.97999954  31.18000031  57.77000046
C    12.00000000  32.34999847  58.22000122
C    12.61999989  31.91999817  57.02000046
C    14.00000000  31.88999939  56.86999893
C     4.48999977  29.92000198  58.56999969
H     4.05037069  30.45180893  57.72619247
H     8.80999947  30.52999878  55.81999969
H     9.76000023  32.70999908  60.18000031
H     7.63000011  32.34000015  61.00999832
H     5.47999954  31.42999840  60.72000122
H     6.48999977  29.87999916  56.83000183
H    14.46000004  31.63999939  55.91999817
H     3.88000011  30.17999840  59.45000076
H     4.46000004  28.85000038  58.30999756
S    15.34000015  33.79000092  54.16999817
C    18.04000092  33.81000137  53.41999817
C    16.73999977  33.51000214  53.11000061
C    16.43000031  32.95000076  51.81999969
C    17.45000076  32.76000214  50.90999985
C    18.76000023  33.23999786  51.12999725
C    19.81999969  33.08000183  50.19000244
C    21.12999916  33.43000031  50.43000031
C    21.38999939  34.13999939  51.63000107
C    20.39999962  34.18999863  52.58999634
C    19.04000092  33.81000137  52.42000198
C    14.98999977  32.90000153  51.65000153
C    14.30999947  33.18000031  52.85999680
C    12.92000008  33.20999908  52.91999817
C    22.77000046  34.61000061  52.04000092
H    23.21310234  33.92390823  52.76182938
H    18.17000008  34.29000092  54.38999939
H    17.19000053  32.16999817  50.02999878
H    19.43000031  32.65000153  49.27999878
H    21.80000114  32.97999954  49.69999695
H    20.69999886  34.70999908  53.50000000
H    12.42000008  33.65000153  53.77999878
H    23.51000023  34.81999969  51.25999832
H    22.59000015  35.54999924  52.57999802
S    11.79999924  31.83000183  49.34000015
C     9.11999989  31.47000122  50.17000198
C    10.39999962  31.90000153  50.43000031
C    10.77999973  32.43999863  51.70999908
C     9.77999973  32.52999878  52.65999603
C     8.46000004  32.04999924  52.44999695
C     7.46999979  32.04999924  53.47000122
C     6.24000025  31.44000053  53.34999847
C     5.86999989  31.07999992  52.02999878
C     6.74000025  31.21999931  50.97000122
C     8.10999966  31.54000092  51.16000366
C    12.20999908  32.70000076  51.83000183
C    12.89000034  32.27000046  50.66999817
C    14.27999973  32.30999756  50.59000015
C     4.61999989  30.28000069  51.72999954
H     4.02891922  30.82835197  50.99649048
H     8.89000034  31.18999863  49.13999939
H    10.11999989  32.97000122  53.59000397
H     7.69000006  32.59999847  54.38000107
H     5.44000053  31.61000061  54.06000137
H     6.39999962  30.79999924  50.01999664
H    14.85000038  31.83000183  49.80999756
H     4.13999987  30.31999969  52.70999908
H     4.88999987  29.25000000  51.44000244
