96

S    15.44999981  32.93000031  60.58000183
C    17.97999954  33.63999939  59.61999893
C    16.77999878  33.00000000  59.40999985
C    16.38000107  32.34999847  58.18999863
C    17.38000107  32.34000015  57.23999786
C    18.68000031  32.86999893  57.43999863
C    19.55999947  32.85000229  56.31999969
C    20.81999969  33.36000061  56.52000046
C    21.12999916  34.13000107  57.68000031
C    20.26000023  34.27000046  58.74000168
C    18.98999977  33.63999939  58.61999893
C    14.94999981  32.09000015  58.11000061
C    14.29999924  32.42000198  59.33000183
C    12.92000008  32.43999863  59.47999954
C    22.55000114  34.63000107  57.80000305
H    23.11914635  34.09642792  58.56123352
H    18.25000000  34.20000076  60.51000214
H    17.13000107  32.04000092  56.22000122
H    19.22999954  32.49000168  55.34999847
H    21.51000023  33.11000061  55.72000122
H    20.48999977  34.79000092  59.65999985
H    12.56000042  32.68000031  60.47000122
H    23.05000114  34.64999771  56.81999969
H    22.43999863  35.68000031  58.09999847
S    11.61000061  31.15999985  56.02000427
C     8.89999962  31.00000000  56.79999924
C    10.19999981  31.35000038  57.06999969
C    10.67000008  31.90999985  58.29999924
C     9.73999977  32.06999969  59.31000137
C     8.38000011  31.75000000  59.09999847
C     7.36000013  31.96000099  60.07999802
C     6.09000015  31.44000053  59.93999863
C     5.71000004  30.85000038  58.70999908
C     6.61999989  30.73999786  57.68000031
C     7.97999954  31.11000061  57.87000275
C    12.10999966  32.06999969  58.39000320
C    12.81000042  31.68000031  57.22000122
C    14.18000031  31.64999962  57.02999878
C     4.26999998  30.43000031  58.50000000
H     3.79270053  30.92154694  57.65225601
H     8.43999958  30.69999886  55.86000061
H    10.14000034  32.52999878  60.20999908
H     7.64999962  32.38999939  61.04000092
H     5.33999968  31.57999992  60.72000122
H     6.34999990  30.46999931  56.65999985
H    14.65000057  31.35999870  56.09000397
H     3.75000000  30.71000099  59.43000031
H     4.26999998  29.36000061  58.29000092
S    11.71000004  29.18999863  52.61000061
C     9.07999992  28.68999863  53.48999786
C    10.44000053  28.57000160  53.68999863
C    10.98999977  27.93999863  54.85000229
C    10.15999985  27.46000099  55.84999847
C     8.76000023  27.59000015  55.68999863
C     7.82999992  26.97999954  56.58000183
C     6.48000002  27.01999855  56.36000061
C     5.92000008  27.79999924  55.31000137
C     6.81999969  28.19999886  54.34000015
C     8.23000050  28.09000015  54.45000076
C    12.43999958  28.01000214  54.86000061
C    12.97999954  28.74000168  53.76999664
C    14.22999954  29.34999847  53.76999664
C     4.44000006  28.09000015  55.20999908
H     3.94475460  27.42495537  54.50250626
H     8.69999981  29.30000114  52.67000198
H    10.48999977  26.76000214  56.60999680
H     8.19000053  26.40999985  57.43000031
H     5.73999977  26.63000107  57.04999924
H     6.38999987  28.72999954  53.48999786
H    14.50000000  29.96999931  52.91999817
H     3.96000004  28.00000000  56.18999863
H     4.21000004  29.10000038  54.86000061
S    15.67000008  28.16999817  57.30999756
C    18.29000092  28.97999954  56.58000183
C    16.94000053  28.90999985  56.31000137
C    16.45000076  29.40999985  55.06000137
C    17.32999992  30.03000069  54.19000244
C    18.72999954  30.09000015  54.40000153
C    19.72999954  30.55000114  53.50000000
C    21.07000160  30.38999939  53.72000122
C    21.51000023  29.79999924  54.93999863
C    20.59999847  29.36000061  55.86000061
C    19.19999886  29.47999954  55.61999893
C    15.06000042  29.04000092  54.85000229
C    14.55999947  28.26000023  55.91999817
C    13.25000000  27.79999924  55.98999786
C    22.98000145  29.63000107  55.25000000
H    23.32766342  30.25437546  56.07303619
H    18.68000031  28.61999893  57.52999878
H    17.02000046  30.20000076  53.15999985
H    19.45000076  30.96999931  52.52999878
H    21.80999947  30.76999855  53.02000046
H    20.97999954  28.90999985  56.77999878
H    12.89999962  27.43999863  56.95000076
H    23.62999916  29.79000092  54.36999893
H    23.19999886  28.57999992  55.47999954
