96

S    14.98999977  32.97000122  60.35999680
C    17.61999893  33.34000015  59.43000031
C    16.31000137  33.00000000  59.18000031
C    15.82999992  32.56999969  57.90000153
C    16.79000092  32.38999939  56.91999817
C    18.09000015  32.95000076  57.04999924
C    18.96000099  33.00000000  55.91999817
C    20.23999977  33.48999786  56.05999756
C    20.65999985  34.02000046  57.30999756
C    19.79999924  34.04999924  58.37999725
C    18.47999954  33.50000000  58.31999969
C    14.39000034  32.40000153  57.85999680
C    13.78000069  32.56000137  59.13000107
C    12.41000080  32.40000153  59.29999924
C    22.10000038  34.45000076  57.50999832
H    22.58904648  33.80502701  58.24002457
H    17.84000015  33.75999832  60.40999985
H    16.61000061  31.76000214  56.05999756
H    18.67000008  32.38999939  55.06000137
H    20.96999931  33.25999832  55.30000305
H    20.13000107  34.27999878  59.38000107
H    12.02999973  32.63000107  60.28999710
H    22.67999840  34.47999954  56.58000183
H    22.13999939  35.47999954  57.90000153
S    11.06999969  31.25999832  55.76000214
C     8.42000008  30.88000107  56.59000015
C     9.68000031  31.37000084  56.84999847
C    10.15999985  31.77000046  58.13999939
C     9.25000000  31.70000076  59.18000031
C     7.90999985  31.27000046  58.99000168
C     7.00999975  31.35000038  60.10000229
C     5.71000004  30.96999931  59.87999725
C     5.31000042  30.32999992  58.68000031
C     6.23000050  30.22000122  57.65999603
C     7.51999950  30.81000137  57.69000244
C    11.59000015  32.02999878  58.22000122
C    12.23000050  31.81999969  56.97999954
C    13.60000038  31.97000122  56.77999878
C     3.88000011  29.86000061  58.47000122
H     3.32440925  30.44408226  57.73633575
H     8.23999977  30.27000046  55.70999908
H     9.55000019  31.91999817  60.20000076
H     7.36000013  31.75000000  61.04999924
H     5.03000021  31.07000160  60.70999908
H     5.96000004  29.77999878  56.70000076
H    14.02999973  31.63999939  55.84000015
H     3.44000006  29.86999893  59.47000122
H     3.86999989  28.80000114  58.20000076
S    15.52000046  33.45000076  53.95999908
C    18.09999847  34.09000015  53.00000000
C    16.87000084  33.50000000  52.81000137
C    16.54000092  32.88000107  51.56999969
C    17.50000000  32.80999756  50.56999969
C    18.76000023  33.41999817  50.77999878
C    19.78000069  33.40999985  49.78000259
C    21.07000160  33.84999847  49.98000336
C    21.38000107  34.56000137  51.17000198
C    20.42000008  34.61999893  52.15000153
C    19.07999992  34.15000153  51.97999954
C    15.11000061  32.62000275  51.52999878
C    14.39000034  32.86000061  52.71999741
C    13.01000023  32.72999954  52.84000015
C    22.82999992  34.83000183  51.52999878
H    23.22834206  34.05465698  52.18441772
H    18.38999939  34.52000046  53.95999908
H    17.38000107  32.42000198  49.56999969
H    19.62000084  32.93000031  48.81999969
H    21.83000183  33.45000076  49.31000137
H    20.63999939  34.90999985  53.16999817
H    12.43000031  32.86999893  53.75000000
H    23.48999977  35.06999969  50.68999863
H    22.78000069  35.75999832  52.09999847
S    11.79999924  31.67000008  49.25000000
C     9.13999939  31.22999954  50.13000107
C    10.43000031  31.64999962  50.37000275
C    10.84000015  32.20999908  51.62000275
C     9.92999935  32.23999786  52.65999603
C     8.59000015  31.80999947  52.47000122
C     7.64999962  31.91999817  53.53000259
C     6.37000036  31.45999908  53.39000320
C     6.02999973  30.81000137  52.18000031
C     6.90000010  30.72999954  51.11000061
C     8.25000000  31.17000198  51.23000336
C    12.27000046  32.45999908  51.68000031
C    12.96000004  32.21999741  50.47000122
C    14.34999943  32.20000076  50.41999817
C     4.59999990  30.34000015  52.00000000
H     4.04590797  31.06458092  51.40328979
H     8.97999954  30.81000137  49.13999939
H    10.24000072  32.52000046  53.67000198
H     7.94000053  32.50999832  54.40000153
H     5.52999973  31.73000145  54.02000046
H     6.63999987  30.45999908  50.08999634
H    14.88999939  32.02000046  49.50000000
H     4.05999994  30.22999954  52.95000076
H     4.53999996  29.37000084  51.49000168
