96

S    15.32999992  32.70000076  60.54000092
C    17.97000122  33.04000092  59.72999954
C    16.69999886  32.62000275  59.41999817
C    16.23999977  32.13000107  58.15000153
C    17.21999931  32.02000046  57.18000031
C    18.54999924  32.47000122  57.37999725
C    19.52999878  32.47000122  56.33999634
C    20.75000000  33.08000183  56.43000031
C    21.11000061  33.55999756  57.71999741
C    20.17999840  33.67000198  58.72000122
C    18.89999962  33.04000092  58.64999771
C    14.80999947  31.90000153  58.06999969
C    14.15999985  32.21999741  59.29000092
C    12.77999973  32.33000183  59.43000031
C    22.43000031  34.20000076  58.08000183
H    22.96275711  33.56779480  58.79034424
H    18.18000031  33.59000015  60.63999939
H    17.01000023  31.54999924  56.23000336
H    19.25000000  31.88999939  55.45999908
H    21.52000046  33.04000092  55.65999985
H    20.36999893  34.24000168  59.61999893
H    12.35999966  32.40999985  60.43000031
H    22.95000076  34.45999908  57.15000153
H    22.36000061  35.16999817  58.59000397
S    11.50000000  30.94000053  55.91999817
C     8.82000065  30.85000038  56.84999847
C    10.13000011  31.21000099  57.02000046
C    10.59000015  31.80000114  58.23999786
C     9.61000061  32.06999969  59.18000031
C     8.22000027  31.77999878  59.06000137
C     7.26999998  31.81999969  60.12000275
C     5.98999977  31.37000084  59.94999695
C     5.58000040  30.69000053  58.76999664
C     6.52999973  30.52999878  57.78999710
C     7.85000038  31.07000160  57.87000275
C    12.02999973  31.94000053  58.30999756
C    12.67000008  31.54999924  57.11000061
C    14.04999924  31.44000053  56.98999786
C     4.21000004  30.09000015  58.60000229
H     3.72639179  30.55227089  57.73946381
H     8.56999969  30.30999947  55.93999863
H     9.92999935  32.34999847  60.18000031
H     7.64999962  32.13000107  61.09000397
H     5.27999973  31.28999901  60.77000046
H     6.34000015  29.89999962  56.93000031
H    14.55000019  30.94000053  56.16000366
H     3.53999996  30.30999947  59.45000076
H     4.28000021  29.00000000  58.50000000
S    15.18000031  33.22999954  54.38000107
C    17.84000015  33.32999802  53.61000061
C    16.54000092  33.00000000  53.27000046
C    16.13000107  32.34999847  52.06999969
C    17.10000038  32.21999741  51.07999802
C    18.30999947  32.93000031  51.24000168
C    19.27000046  32.77000046  50.19000244
C    20.56999969  33.13000107  50.43000031
C    20.95000076  33.81999969  51.60999680
C    20.06000137  33.94000244  52.65999603
C    18.76000023  33.36999893  52.52999878
C    14.68000031  32.20999908  51.97000122
C    14.02999973  32.70000076  53.13000107
C    12.64999962  32.70999908  53.27999878
C    22.36999893  34.31999969  51.70000076
H    22.91994858  33.81290436  52.49278641
H    18.02999878  33.72000122  54.59999847
H    16.95999908  31.50000000  50.27999878
H    19.04000092  32.21999741  49.29000092
H    21.28000069  32.97000122  49.62999725
H    20.36000061  34.52999878  53.50999832
H    12.18000031  32.88999939  54.23999786
H    22.79000092  34.18999863  50.68999863
H    22.29999924  35.40999985  51.86000061
S    11.39999962  31.40000153  49.75000000
C     8.76000023  30.98999977  50.66999817
C    10.03999901  31.42999840  50.90000153
C    10.42000008  32.09000015  52.11000061
C     9.46000004  32.21999741  53.09999847
C     8.14999962  31.71999931  52.91999817
C     7.21000004  31.57999992  53.97999573
C     5.89999962  31.22999954  53.73000336
C     5.49000025  30.72000122  52.47000122
C     6.43000031  30.65000153  51.45999908
C     7.76999998  31.07999992  51.69000244
C    11.85999966  32.27000046  52.21000290
C    12.53000069  31.94999886  51.00000000
C    13.89999962  32.04000092  50.83000183
C     4.07000017  30.25000000  52.25999832
H     3.60024452  30.89769363  51.51977921
H     8.52999973  30.69999886  49.65000153
H     9.84000015  32.52000046  54.08000183
H     7.53000021  32.02000046  54.92000198
H     5.25000000  31.34000015  54.58000183
H     6.19999981  30.22999954  50.48999786
H    14.28999996  32.11999893  49.80999756
H     3.49000001  30.29999924  53.18999863
H     4.18000031  29.17000008  52.05999756
