96

S    15.90000057  32.90999985  60.51000214
C    18.59000015  33.22000122  59.79000092
C    17.28999901  32.95000076  59.40999985
C    16.90999985  32.72000122  58.04999924
C    17.87999916  32.72000122  57.06999969
C    19.20999908  33.09000015  57.39999771
C    20.23999977  33.22000122  56.42000198
C    21.48999977  33.63999939  56.81000137
C    21.84000015  34.04999924  58.11999893
C    20.89999962  33.70999908  59.06000137
C    19.57999992  33.25999832  58.77999878
C    15.47999954  32.47000122  57.97000122
C    14.77000046  32.50000000  59.20000076
C    13.38999939  32.38999939  59.25000000
C    23.21000099  34.52000046  58.57999802
H    23.70778847  33.77331543  59.19868088
H    18.81000137  33.68000031  60.73999786
H    17.73999977  32.50000000  56.00999832
H    20.09000015  33.00000000  55.37000275
H    22.21999931  33.67000198  56.00999832
H    21.02999878  33.84999847  60.13000107
H    12.96000004  32.37999725  60.25000000
H    23.80000114  34.86000061  57.71999741
H    23.11000061  35.47999954  59.09000015
S    12.27000046  31.45000076  55.63000107
C     9.63000011  30.93000031  56.40999603
C    10.85999966  31.45999908  56.72000122
C    11.16000080  31.93000031  58.02999878
C    10.21000004  31.81999969  59.02999878
C     8.93000031  31.31999969  58.74000168
C     7.85000038  31.40000153  59.66999817
C     6.61000013  30.85000038  59.45999908
C     6.39999962  30.23999977  58.18999863
C     7.31999969  30.31999969  57.18000031
C     8.61999989  30.86000061  57.41000366
C    12.57999992  32.26000214  58.11999893
C    13.34000015  31.88999939  56.97000122
C    14.72000027  32.00999832  56.88000107
C     5.03999996  29.70000076  57.80000305
H     4.38693953  30.40329742  57.28329468
H     9.50000000  30.51000214  55.41999817
H    10.47999954  32.07999802  60.06000137
H     8.11999989  31.94000053  60.56999969
H     5.82999992  30.92000008  60.20999908
H     7.17000008  29.96999931  56.16000366
H    15.06999969  31.76000214  55.89000320
H     4.57999992  29.26000214  58.69999695
H     5.26999998  28.88999939  57.09000015
S    15.86999989  33.50000000  54.13999939
C    18.45999908  34.00000000  53.31999969
C    17.20000076  33.58000183  52.97000122
C    16.70999908  33.20000076  51.68000031
C    17.68000031  33.31000137  50.70999908
C    19.03000069  33.62999725  50.97999954
C    20.03000069  33.59000015  49.95999908
C    21.31000137  34.04999924  50.15999603
C    21.67000008  34.61000061  51.40999603
C    20.75000000  34.57999802  52.43999863
C    19.42000008  34.11000061  52.28000259
C    15.27999973  32.93000031  51.62000275
C    14.67000008  33.06999969  52.90000153
C    13.28999996  33.04000092  53.04000092
C    23.09999847  35.06000137  51.59000015
H    23.54839134  34.59025574  52.46543503
H    18.71999931  34.45000076  54.27999878
H    17.46000099  32.99000168  49.68999863
H    19.69000053  33.22999954  48.99000168
H    22.04999924  33.97000122  49.36999893
H    21.09999847  35.02999878  53.36000061
H    12.81000042  33.44000244  53.92000198
H    23.72999954  34.87999725  50.72000122
H    23.09999847  36.12999725  51.86000061
S    12.05999947  31.77999878  49.41999817
C     9.38000011  31.60000038  50.19000244
C    10.67000008  32.00000000  50.48999786
C    11.05999947  32.55000305  51.73999786
C    10.11999989  32.49000168  52.75000000
C     8.80000019  32.04999924  52.50999832
C     7.82999992  31.97999954  53.55999756
C     6.56000042  31.50000000  53.33000183
C     6.15999985  31.05999947  52.04000092
C     7.09999990  31.04999924  51.03000259
C     8.39999962  31.59000015  51.20999908
C    12.50000000  32.69000244  51.93000031
C    13.12000084  32.40999985  50.68999863
C    14.48999977  32.57999802  50.52000046
C     4.75000000  30.59999847  51.77999878
H     4.34340906  31.06365585  50.88121796
H     9.22999954  31.25000000  49.16999817
H    10.39000034  32.56000137  53.80000305
H     8.25000000  32.07999802  54.55999756
H     5.75999975  31.38999939  54.05000305
H     6.84999990  30.53999901  50.10000229
H    14.98000050  32.36000061  49.56999969
H     4.17000008  30.82999992  52.69000244
H     4.88000011  29.51000023  51.70999908
