96

S    14.75000000  32.80999756  60.41999817
C    17.27000046  33.65999985  59.52999878
C    16.09000015  32.99000168  59.27999878
C    15.72999954  32.50999832  57.97999954
C    16.72000122  32.42000198  57.01000214
C    18.00000000  32.93999863  57.30999756
C    19.10000038  32.69000244  56.44000244
C    20.38999939  33.04000092  56.77999878
C    20.62000084  33.91999817  57.87000275
C    19.56999969  34.22999954  58.69999695
C    18.27999878  33.62999725  58.54000092
C    14.29999924  32.31999969  57.81000137
C    13.64999962  32.47999954  59.06000137
C    12.28999996  32.27000046  59.16999817
C    21.98999786  34.50000000  58.13999939
H    22.54541206  33.80217361  58.76662064
H    17.53999901  33.95999908  60.54000092
H    16.50000000  32.00999832  56.03000259
H    19.03000069  31.97000122  55.63000107
H    21.18999863  32.77000046  56.10000229
H    19.78999901  34.76000214  59.61999893
H    11.90000057  32.36000061  60.18000031
H    22.44999886  34.40999985  57.15000153
H    22.01000023  35.54000092  58.50000000
S    11.00000000  31.47999954  55.50000000
C     8.38999939  30.94000053  56.35000229
C     9.65999985  31.35999870  56.65999985
C    10.10000038  31.70000076  57.97999954
C     9.13000011  31.64999962  58.96999741
C     7.76999998  31.37000084  58.69999695
C     6.80000019  31.54000092  59.72999954
C     5.53999996  31.01000023  59.52000046
C     5.22000027  30.45000076  58.26000214
C     6.11000013  30.38000107  57.21000290
C     7.42999983  30.86999893  57.38999939
C    11.54000092  31.84999847  58.06000137
C    12.18000031  31.76000214  56.79000092
C    13.53999996  31.98999786  56.68000031
C     3.81000018  29.94999886  58.06000137
H     3.32765341  30.53874588  57.27973175
H     8.06999969  30.52999878  55.38999939
H     9.38000011  31.84999847  60.00999832
H     7.14999962  31.87999916  60.70000076
H     4.74000025  31.05999947  60.25000000
H     5.88999987  30.05000114  56.19999695
H    13.97999954  31.87000084  55.68999863
H     3.22000003  30.03000069  58.99000168
H     3.86999989  28.87000084  57.87000275
S    11.26999950  28.82999802  52.70999908
C     8.69000053  28.21000099  53.61999893
C    10.03999901  28.29999924  53.87000275
C    10.59000015  27.88000107  55.12000275
C     9.77999973  27.37999916  56.12999725
C     8.38999939  27.29000092  55.90000153
C     7.53000021  26.48999977  56.70000076
C     6.21000004  26.28999901  56.36000061
C     5.63000011  26.90999985  55.20999908
C     6.44000006  27.65999985  54.38999939
C     7.83999968  27.67999840  54.62999725
C    12.03999996  28.02999878  55.08999634
C    12.55000019  28.65999985  53.93000031
C    13.82999992  29.17000008  53.74000168
C     4.13999987  26.77000046  55.02999878
H     3.72792196  26.79131508  54.02111816
H     8.22000027  28.75000000  52.80000305
H    10.21000004  27.11000061  57.09000015
H     8.01999950  26.07000160  57.57999802
H     5.59999990  25.65000153  56.98999786
H     6.12999964  28.01000214  53.40999985
H    14.07999992  29.63000107  52.78999710
H     3.97000027  25.75000000  55.40000153
H     3.74000025  27.50999832  55.73999786
S    15.64000034  28.05000114  57.05999756
C    18.19000053  28.64000130  56.05999756
C    16.82999992  28.59999847  55.86999893
C    16.21000099  29.18000031  54.71000290
C    17.04000092  29.70999908  53.75000000
C    18.44000053  29.75000000  53.95000076
C    19.26000023  30.43999863  53.01000214
C    20.58000183  30.65999985  53.29000092
C    21.21000099  30.27000046  54.50000000
C    20.40999985  29.63999939  55.43000031
C    19.09000015  29.21999931  55.12000275
C    14.78000069  28.94000053  54.75000000
C    14.28999996  28.36000061  55.94999695
C    12.97999954  27.95000076  56.11999893
C    22.70999908  30.45000076  54.58000183
H    23.10713387  30.18051529  55.55865479
H    18.55999947  28.36999893  57.04999924
H    16.56999969  30.00999832  52.81999969
H    18.71999931  30.76999855  52.11999893
H    21.25999832  31.07000160  52.54000092
H    20.84000015  29.27000046  56.36000061
H    12.61999989  27.40999985  57.00000000
H    22.88999939  31.50000000  54.34000015
H    23.12999916  29.87999916  53.75000000
