96

S    15.31000042  33.22999954  60.34000015
C    17.89999962  33.59999847  59.34999847
C    16.62999916  33.08000183  59.16999817
C    16.25000000  32.27000046  58.04999924
C    17.21999931  32.20000076  57.06999969
C    18.53000069  32.72000122  57.18000031
C    19.59000015  32.52000046  56.25000000
C    20.81999969  33.11999893  56.44000244
C    21.17000198  33.82999802  57.62000275
C    20.22999954  33.90999985  58.62999725
C    18.92000008  33.40999985  58.39000320
C    14.80999947  32.09000015  57.98999786
C    14.17000008  32.52999878  59.18000031
C    12.79999924  32.70000076  59.31999969
C    22.56999969  34.36999893  57.78999710
H    23.03964424  33.85766220  58.62966537
H    18.20999908  34.18999863  60.20000076
H    17.01000023  31.63000107  56.17000198
H    19.37999916  31.91999817  55.37000275
H    21.57999992  32.93000031  55.70000076
H    20.42000008  34.50000000  59.52000046
H    12.28000069  33.09000015  60.20000076
H    23.09000015  34.18000031  56.84999847
H    22.55000114  35.43999863  58.04000092
S    11.54000092  31.28999901  55.77000046
C     8.94999981  31.09999847  56.72999954
C    10.21999931  31.60000038  56.90999985
C    10.54999924  32.25000000  58.13999939
C     9.61999989  32.38999939  59.15000153
C     8.30000019  31.90999985  58.95999908
C     7.35000038  31.96000099  60.02999878
C     6.17999983  31.25000000  59.91000366
C     5.88999987  30.45000076  58.76999664
C     6.76000023  30.43999863  57.70999908
C     7.97999954  31.18000031  57.77000046
C    12.00000000  32.34999847  58.22000122
C    12.61999989  31.91999817  57.02000046
C    14.00000000  31.88999939  56.86999893
C     4.48999977  29.92000198  58.56999969
H     4.05037069  30.45180893  57.72619247
H     8.80999947  30.52999878  55.81999969
H     9.76000023  32.70999908  60.18000031
H     7.63000011  32.34000015  61.00999832
H     5.47999954  31.42999840  60.72000122
H     6.48999977  29.87999916  56.83000183
H    14.46000004  31.63999939  55.91999817
H     3.88000011  30.17999840  59.45000076
H     4.46000004  28.85000038  58.30999756
S    11.67000008  29.34000015  52.54000092
C     9.11000061  28.65999985  53.52000427
C    10.47999954  28.59000015  53.61000061
C    11.11999989  27.93000031  54.72000122
C    10.29999924  27.23999977  55.58000183
C     8.88000011  27.22999954  55.51000214
C     8.05000019  26.48999977  56.38999939
C     6.69000053  26.60000038  56.27999878
C     6.09000015  27.43999863  55.30000305
C     6.85999966  28.16999817  54.43000031
C     8.27999973  28.05999947  54.50000000
C    12.55000019  28.22000122  54.71000290
C    13.02000046  29.04999924  53.66000366
C    14.34000015  29.47999954  53.56999969
C     4.59000015  27.60000038  55.33000183
H     4.21262932  27.25111008  54.36877060
H     8.67000008  29.14999962  52.64999771
H    10.67999935  26.63999939  56.40999603
H     8.60000038  26.00000000  57.19999695
H     6.07999992  26.14999962  57.05999756
H     6.53999996  28.85999870  53.63999939
H    14.68999958  29.86000061  52.61000061
H     4.13999987  27.07999992  56.18000031
H     4.32000017  28.65999985  55.33000183
S    15.97000027  28.11000061  56.97999954
C    18.53000069  28.85999870  56.19999695
C    17.18000031  28.87000084  55.93000031
C    16.61000061  29.30000114  54.68999863
C    17.38999939  29.80999947  53.67000198
C    18.78000069  29.86000061  53.93000031
C    19.70999908  30.43999863  53.01000214
C    21.07000160  30.40999985  53.22999954
C    21.61999893  29.92000198  54.43999863
C    20.76000023  29.28999901  55.31999969
C    19.34999847  29.34999847  55.14999771
C    15.17000008  29.11999893  54.62999725
C    14.72000027  28.36999893  55.75000000
C    13.38999939  27.93999863  55.79000092
C    23.12000084  29.82000160  54.58000183
H    23.42036629  29.97018433  55.61698151
H    19.02000046  28.45000076  57.08000183
H    17.01000023  30.15999985  52.70999908
H    19.40000153  30.78000069  52.02999878
H    21.68000031  30.58000183  52.35000229
H    21.21000099  28.85999870  56.20999908
H    13.00000000  27.42000198  56.65999985
H    23.54000092  30.53999901  53.87000275
H    23.35000038  28.81000137  54.20999908
