96

S    14.19999981  33.15999985  60.27000046
C    16.84000015  33.43000031  59.47999954
C    15.62000084  32.83000183  59.26000214
C    15.24000072  32.09000015  58.09000015
C    16.22999954  32.06999969  57.11000061
C    17.56000137  32.52999878  57.28000259
C    18.59000015  32.37999725  56.31999969
C    19.85000038  32.90000153  56.51000214
C    20.13000107  33.68999863  57.65999603
C    19.11999893  33.87000275  58.57999802
C    17.82999992  33.29000092  58.47000122
C    13.81000042  31.87000084  57.97000122
C    13.10999966  32.45999908  59.06000137
C    11.72999954  32.49000168  59.12000275
C    21.47000122  34.31999969  57.95000076
H    22.06067848  33.65815735  58.58337402
H    16.90000153  34.18000031  60.26000214
H    16.00000000  31.61000061  56.14999771
H    18.39999962  31.84000015  55.38999939
H    20.61000061  32.79999924  55.73999786
H    19.27000046  34.38999939  59.52000046
H    11.03000069  32.79000092  59.89999771
H    21.91999817  34.50000000  56.95999908
H    21.40000153  35.29999924  58.43000031
S    10.55999947  31.15999985  55.56000137
C     7.88999987  30.82999992  56.43000031
C     9.17000008  31.27000046  56.65999985
C     9.52000046  31.73999977  57.97000122
C     8.52000046  31.96000099  58.88999939
C     7.26000023  31.31999969  58.73000336
C     6.28999996  31.25000000  59.77000427
C     5.14999962  30.50000000  59.58000183
C     4.85000038  29.89999962  58.33000183
C     5.72000027  30.02000046  57.28000259
C     6.89000034  30.81999969  57.43999863
C    10.95000076  31.97999954  58.06999969
C    11.64999962  31.56999969  56.90000153
C    13.03999996  31.53000069  56.86000061
C     3.44000006  29.41999817  58.06999969
H     2.93560338  29.98833466  57.28853989
H     7.60999966  30.34000015  55.50000000
H     8.80000019  32.44999695  59.81999969
H     6.40999985  31.80000114  60.68999863
H     4.30000019  30.71000099  60.22999573
H     5.53999996  29.51000023  56.33999634
H    13.48999977  31.11999893  55.96000290
H     2.86999989  29.53000069  59.00000000
H     3.44000006  28.34000015  57.84000015
S    14.27000046  33.18999863  54.09999847
C    16.95999908  33.29999924  53.30999756
C    15.67000008  32.93999863  53.04000092
C    15.25000000  32.47000122  51.75000000
C    16.25000000  32.27000046  50.80999756
C    17.60000038  32.63999939  51.03000259
C    18.60999870  32.59000015  50.02999878
C    19.90999985  32.97000122  50.24000168
C    20.25000000  33.56999969  51.49000168
C    19.27999878  33.72000122  52.44999695
C    17.94999886  33.23999786  52.29000092
C    13.81000042  32.52999878  51.55000305
C    13.15999985  32.84000015  52.77000046
C    11.77000046  32.86999893  52.76000214
C    21.55999947  34.26000214  51.79000092
H    22.21264076  33.71376801  52.47101974
H    17.13000107  33.75999832  54.27999878
H    15.95999908  31.84000015  49.85000229
H    18.31999969  32.36999893  49.01000214
H    20.59999847  33.11999893  49.41999817
H    19.44000053  34.29000092  53.36000061
H    11.28999901  33.20999908  53.68000031
H    22.06000137  34.43000031  50.83000183
H    21.27000046  35.23999786  52.18999863
S    10.55999947  31.37000084  49.40000153
C     7.97999954  30.92000008  50.26000214
C     9.21000004  31.45999908  50.54999924
C     9.50000000  32.27999878  51.69000244
C     8.52999973  32.36000061  52.68000031
C     7.23000002  31.87000084  52.42000198
C     6.17999983  32.07999802  53.34999847
C     4.94000006  31.56999969  53.06000137
C     4.63000011  31.01000023  51.79000092
C     5.60999966  30.81999969  50.84999847
C     6.94999981  31.17000198  51.18999863
C    10.93999958  32.47000122  51.70000076
C    11.69000053  32.11000061  50.54999924
C    13.07000065  32.04999924  50.45999908
C     3.25000000  30.48999977  51.45000076
H     2.61619234  31.13805199  50.84467697
H     7.73000002  30.38000107  49.34999847
H     8.82000065  32.77000046  53.63999939
H     6.38000011  32.40999985  54.36999893
H     4.21999979  31.37000084  53.85000229
H     5.42999983  30.56999969  49.80999756
H    13.53000069  31.70000076  49.54000092
H     2.79000020  30.22000122  52.41000366
H     3.38999987  29.51000023  50.98999786
