96

S    14.78999996  32.97000122  60.19000244
C    17.38999939  33.45999908  59.22000122
C    16.18000031  32.80999756  59.09999847
C    15.76000023  32.13999939  57.90999985
C    16.72999954  32.04000092  56.93000031
C    18.01000023  32.65000153  57.00000000
C    18.94000053  32.61000061  55.91999817
C    20.09000015  33.36000061  55.98999786
C    20.43999863  34.04000092  57.18999863
C    19.52000046  34.20999908  58.20000076
C    18.30000114  33.47999954  58.13999939
C    14.30999947  32.04000092  57.77999878
C    13.64999962  32.30999756  59.00000000
C    12.27000046  32.30999756  59.16999817
C    21.78999901  34.68000031  57.39999771
H    22.35087204  34.04813004  58.08866501
H    17.64000130  34.08000183  60.07999802
H    16.40999985  31.47000122  56.06999969
H    18.72999954  32.11999893  54.97000122
H    20.78000069  33.34999847  55.15999603
H    19.79999924  34.79000092  59.08000183
H    11.85999966  32.65000153  60.12000275
H    22.34000015  34.75000000  56.45999908
H    21.70000076  35.72999954  57.70000076
S    10.95000076  31.00000000  55.65999985
C     8.39999962  30.48000145  56.70999908
C     9.68000031  30.95000076  56.90000153
C    10.07999992  31.53000069  58.15000153
C     9.13000011  31.57999992  59.15999985
C     7.79999971  31.12999916  59.00000000
C     6.81999969  31.35999870  60.00999832
C     5.50000000  31.05999947  59.79000092
C     5.10999966  30.40999985  58.57999802
C     6.03999996  30.27000046  57.57999802
C     7.40000010  30.68000031  57.69000244
C    11.47999954  31.91999817  58.09000015
C    12.10999966  31.61999893  56.86000061
C    13.48000050  31.73999977  56.69000244
C     3.70000005  29.90999985  58.39000320
H     3.35909390  30.30062103  57.43120193
H     8.14999962  30.00000000  55.76000214
H     9.36999989  32.14999771  60.05000305
H     7.00000000  31.83000183  60.97000122
H     4.73000002  31.22999954  60.52999878
H     5.69999981  29.77999878  56.66999817
H    13.81999969  31.54999924  55.66999817
H     3.14000010  30.27000046  59.26000214
H     3.79999995  28.81999969  58.37999725
S    15.54999924  33.50000000  54.15999985
C    18.13999939  33.90999985  53.15999985
C    16.86000061  33.45000076  52.95999908
C    16.47999954  33.01000214  51.65999985
C    17.38000107  32.81999969  50.63000107
C    18.68000031  33.32999802  50.87999725
C    19.78000069  33.18000031  49.99000168
C    21.07000160  33.58000183  50.27999878
C    21.50000000  34.06999969  51.53999710
C    20.45000076  34.31999969  52.38999939
C    19.11999893  33.86000061  52.14000320
C    15.06000042  32.70000076  51.70000076
C    14.40999985  32.90999985  52.95000076
C    13.02000046  32.78000259  53.02999878
C    22.88999939  34.56000137  51.86000061
H    23.38949394  33.88211823  52.55215454
H    18.45000076  34.34000015  54.12000275
H    17.18000031  32.40999985  49.64000320
H    19.62000084  32.72000122  49.02000046
H    21.80999947  33.45000076  49.48999786
H    20.69999886  34.69000244  53.37999725
H    12.60000038  33.06999969  53.97999573
H    23.31999969  34.81999969  50.87999725
H    22.79999924  35.59000015  52.23999786
S    11.92000008  31.60000038  49.41999817
C     9.19000053  31.56999969  50.10000229
C    10.51000023  31.70999908  50.48999786
C    10.85999966  32.16999817  51.79999924
C     9.89999962  32.26000214  52.78999710
C     8.55000019  31.97999954  52.47000122
C     7.55000019  32.06000137  53.48999786
C     6.25000000  31.77000046  53.15999985
C     5.92000008  31.30000114  51.86999893
C     6.84999990  31.28000069  50.86000061
C     8.19999981  31.63000107  51.11999893
C    12.30000019  32.34999847  51.90999985
C    13.01000023  32.13999939  50.70000076
C    14.37999916  32.29000092  50.54999924
C     4.53999996  30.72000122  51.63999939
H     3.96305108  31.31831741  50.93484116
H     8.93999958  31.44000053  49.05000305
H    10.10000038  32.62000275  53.80000305
H     7.73000002  32.47999954  54.47000122
H     5.60999966  31.44000053  53.97999573
H     6.61999989  30.72999954  49.94999695
H    14.91000080  32.11000061  49.61000061
H     3.95000005  30.72000122  52.56999969
H     4.67000008  29.69000053  51.26999664
