96

S    15.11000061  33.02000046  60.25000000
C    17.78000069  33.32999802  59.52000046
C    16.53000069  32.86000061  59.20000076
C    16.15999985  32.54000092  57.84999847
C    17.20000076  32.66999817  56.95000076
C    18.47999954  33.22000122  57.18000031
C    19.47999954  33.46999741  56.18999863
C    20.71000099  34.01000214  56.45999908
C    21.04999924  34.20999908  57.83000183
C    20.12000084  33.97999954  58.81999969
C    18.81000137  33.50000000  58.54999924
C    14.72000027  32.37999725  57.67000198
C    14.04000092  32.63000107  58.88999939
C    12.68000031  32.40999985  59.02000046
C    22.36000061  34.80999756  58.26000214
H    22.82764816  34.25732803  59.07484055
H    17.98999977  33.65999985  60.52999878
H    16.86000061  32.31999969  55.97000122
H    19.14999962  33.13000107  55.20999908
H    21.40999985  34.22999954  55.65999985
H    20.32999992  34.17000198  59.86999893
H    12.15000057  32.36000061  59.97000122
H    23.08000183  34.77999878  57.43000031
H    22.19000053  35.86999893  58.50000000
S    11.50000000  31.63999939  55.31999969
C     8.82000065  31.15999985  56.11999893
C    10.10000038  31.55999947  56.40999603
C    10.52000046  31.88999939  57.74000168
C     9.59000015  31.94000053  58.76999664
C     8.26000023  31.54999924  58.48999786
C     7.30000019  31.45999908  59.54000092
C     6.01999998  31.02999878  59.23999786
C     5.60999966  30.88999939  57.88000107
C     6.50000000  30.86000061  56.84000015
C     7.83999968  31.21999931  57.15000153
C    11.94000053  32.16999817  57.84999847
C    12.64000034  32.07999802  56.60999680
C    14.01999950  32.13999939  56.47999573
C     4.21999979  30.39999962  57.56000137
H     3.61506462  31.06898689  56.94794846
H     8.56999969  30.81999969  55.12000275
H     9.88000011  32.11000061  59.79999924
H     7.73000002  31.55999947  60.52999878
H     5.23999977  30.82999992  59.95999908
H     6.15999985  30.72000122  55.81999969
H    14.52999973  31.91999817  55.54999924
H     3.65000010  30.23999977  58.48999786
H     4.30000019  29.38999939  57.14000320
S    11.03999996  29.30999947  52.63000107
C     8.47999954  28.75000000  53.61999893
C     9.85000038  28.62999916  53.75999832
C    10.42000008  27.93999863  54.86000061
C     9.67000008  27.25000000  55.79999924
C     8.27000046  27.34000015  55.68000031
C     7.46000004  26.65999985  56.63000107
C     6.09000015  26.65999985  56.51000214
C     5.51999998  27.27999878  55.37000275
C     6.28000021  28.00000000  54.47999954
C     7.69999981  27.98000145  54.52000046
C    11.87000084  28.12999916  54.85000229
C    12.32999992  28.95000076  53.79000092
C    13.64999962  29.34999847  53.61999893
C     4.03999996  27.06999969  55.13000107
H     3.86265540  26.59471703  54.16524506
H     7.92999983  29.21999931  52.81000137
H    10.06000042  26.70999908  56.65999985
H     8.10999966  26.00000000  57.19999695
H     5.50000000  26.05999947  57.19999695
H     5.73000002  28.69999886  53.85000229
H    13.96000004  30.00999832  52.81999969
H     3.54999995  26.35000038  55.80999756
H     3.54999995  28.05000114  55.17000198
S    15.27999973  27.88999939  57.02000046
C    17.79000092  28.90999985  56.36000061
C    16.45000076  28.81999969  56.07999802
C    15.85999966  29.38999939  54.89999771
C    16.77999878  29.97999954  54.05000305
C    18.15999985  30.15999985  54.31000137
C    19.12999916  30.78000069  53.47000122
C    20.46999931  30.79999924  53.75999832
C    20.96999931  30.23999977  54.97000122
C    20.07999802  29.68000031  55.84999847
C    18.70000076  29.60000038  55.52000046
C    14.46000004  29.04000092  54.72999954
C    14.02999973  28.23999786  55.80999756
C    12.71999931  27.77000046  55.90000153
C    22.46999931  30.10000038  55.00000000
H    22.89524841  30.69535065  55.80797195
H    18.15000153  28.68000031  57.36000061
H    16.38000107  30.35000038  53.11000061
H    18.81999969  31.14999962  52.50000000
H    21.21000099  30.95999908  52.97999954
H    20.45999908  29.20000076  56.75000000
H    12.32999992  27.27000046  56.77999878
H    22.80999947  30.23999977  53.96999741
H    22.79000092  29.04999924  55.07999802
