96

S    15.72000027  32.54000092  60.38999939
C    18.25000000  33.20999908  59.34000015
C    17.02000046  32.62000275  59.16999817
C    16.64999962  32.00999832  57.94000244
C    17.54999924  32.11000061  56.88999939
C    18.88000107  32.56999969  57.02999878
C    19.88000107  32.70000076  56.02000427
C    21.12999916  33.18999863  56.29000092
C    21.50000000  33.68999863  57.56999969
C    20.51000214  33.68999863  58.52000427
C    19.22999954  33.09999847  58.31999969
C    15.26999950  31.52000046  57.93000031
C    14.65000057  31.81999969  59.16999817
C    13.27000046  31.84999847  59.36999893
C    22.88000107  34.20999908  57.88999939
H    23.47575188  33.57169342  58.54249191
H    18.55999947  33.62999725  60.28999710
H    17.20999908  31.78999901  55.90999985
H    19.64999962  32.29000092  55.04000092
H    21.80999947  33.04999924  55.45000076
H    20.62999916  34.27999878  59.41999817
H    12.84999943  32.18000031  60.31000137
H    23.45000076  34.38999939  56.97000122
H    22.79999924  35.19000244  58.36999893
S    11.92000008  30.95000076  55.72000122
C     9.22999954  30.71000099  56.59000015
C    10.55999947  30.95000076  56.86000061
C    11.03999996  31.45000076  58.11999893
C    10.06999969  31.60000038  59.09000015
C     8.71000004  31.28000069  58.88999939
C     7.81000042  31.40999985  59.99000168
C     6.51999998  30.96999931  59.80999756
C     6.11000013  30.36999893  58.59000397
C     6.94999981  30.22000122  57.51999664
C     8.26000023  30.76000023  57.63000107
C    12.48000050  31.57999992  58.23999786
C    13.09999943  31.34000015  56.98999786
C    14.47000027  31.28000069  56.81000137
C     4.73000002  29.76000023  58.47999954
H     4.11336231  30.43334007  57.88462448
H     8.97000027  30.25000000  55.65000153
H    10.39000034  31.76000214  60.12000275
H     8.22000027  31.84000015  60.90000153
H     5.73999977  30.95999908  60.56999969
H     6.67999983  29.63999939  56.63999939
H    14.88000011  31.28000069  55.80999756
H     4.32000017  29.44999886  59.45999908
H     4.90000010  28.88000107  57.84999847
S    15.59000015  33.27999878  54.02000046
C    18.15999985  33.77000046  53.01000214
C    16.90999985  33.20999908  52.84000015
C    16.46000099  32.65999985  51.59999847
C    17.42000008  32.45999908  50.63000107
C    18.75000000  32.92000198  50.80999756
C    19.78000069  32.77000046  49.84000397
C    21.07000160  33.22000122  50.00000000
C    21.38999939  33.97000122  51.16000366
C    20.42000008  34.25000000  52.09000015
C    19.10000038  33.70999908  51.95000076
C    15.03999901  32.36000061  51.63999939
C    14.37999916  32.81999969  52.81000137
C    13.00000000  32.79000092  52.95999908
C    22.78000069  34.52000046  51.39999771
H    23.30554199  34.03707123  52.22381973
H    18.31999969  34.29999924  53.94000244
H    17.13999939  31.97000122  49.69999695
H    19.52999878  32.34000015  48.87000275
H    21.75000000  33.02999878  49.16999817
H    20.53999901  34.95999908  52.90000153
H    12.50000000  33.15999985  53.85000229
H    23.36999893  34.45000076  50.47999954
H    22.70000076  35.59000015  51.60999680
S    11.75000000  31.14999962  49.56999969
C     9.10000038  31.12999916  50.44000244
C    10.40999985  31.47999954  50.68000031
C    10.80000019  32.11999893  51.90999985
C     9.85000038  32.20999908  52.90999985
C     8.52000046  31.80000114  52.70000076
C     7.55999994  31.91999817  53.75000000
C     6.30999994  31.38999939  53.55999756
C     5.88999987  30.86999893  52.29999924
C     6.76999998  30.79999924  51.24000168
C     8.10000038  31.25999832  51.43000031
C    12.25000000  32.20999908  51.93000031
C    12.90999985  31.73000145  50.77000046
C    14.27999973  31.84000015  50.58000183
C     4.59000015  30.13999939  52.08000183
H     3.94913769  30.59572411  51.32521057
H     8.89000034  30.71000099  49.45999908
H    10.13000011  32.49000168  53.93000031
H     7.90999985  32.30999756  54.69999695
H     5.60999966  31.37000084  54.38999939
H     6.46000004  30.45999908  50.26000214
H    14.67000008  31.56999969  49.59999847
H     3.98999977  29.94999886  52.97999954
H     4.79999971  29.11999893  51.72999954
