96

S    14.70999908  33.13000107  60.50000000
C    17.35000038  33.67000198  59.65999985
C    16.10000038  33.15000153  59.40000153
C    15.86999989  32.56000137  58.11999893
C    16.82999992  32.50999832  57.12999725
C    18.12999916  32.97999954  57.43000031
C    19.19999886  32.68000031  56.53999710
C    20.46999931  33.09999847  56.86999893
C    20.71000099  33.81000137  58.06999969
C    19.71999931  34.01000214  59.01000214
C    18.42000008  33.50000000  58.74000168
C    14.44000053  32.27999878  57.97000122
C    13.69999981  32.61000061  59.13000107
C    12.30999947  32.62000275  59.18000031
C    22.09000015  34.38999939  58.25000000
H    22.63124084  33.87012482  59.04049683
H    17.47999954  34.11999893  60.63999939
H    16.63999939  31.97999954  56.19999695
H    18.93000031  32.13000107  55.65000153
H    21.40000153  32.86000061  56.36000061
H    19.86999893  34.63000107  59.88999939
H    11.85999966  32.66999817  60.17000198
H    22.70999908  34.54000092  57.36000061
H    21.84000015  35.36999893  58.68000031
S    11.23999977  31.18999863  55.72000122
C     8.60000038  30.73999786  56.60999680
C     9.84000015  31.31000137  56.79999924
C    10.14999962  32.00999832  58.01000214
C     9.23999977  32.13999939  59.02999878
C     7.92999983  31.63000107  58.81000137
C     6.84999990  31.87999916  59.69999695
C     5.58000040  31.38000107  59.52999878
C     5.35000038  30.52999878  58.41999817
C     6.30000019  30.38999939  57.43000031
C     7.59000015  30.98999977  57.56999969
C    11.59000015  32.25000000  58.04000092
C    12.35999966  31.90000153  56.90000153
C    13.75000000  31.94000053  56.81000137
C     3.98000002  29.94999886  58.15999985
H     3.47146130  30.55742264  57.41131592
H     8.42000008  30.13000107  55.72999954
H     9.57999992  32.65000153  59.93000031
H     6.98000002  32.56999969  60.52999878
H     4.78999996  31.57999992  60.24000168
H     6.12999964  29.89000130  56.49000168
H    14.21000004  31.83000183  55.83000183
H     3.38999987  29.87999916  59.08000183
H     4.19000006  28.92999840  57.83000183
S    14.96000099  33.68000031  54.20000076
C    17.70000076  33.67000198  53.50000000
C    16.40999985  33.27999878  53.25000000
C    16.04999924  32.70000076  52.00000000
C    17.02999878  32.47000122  51.04999924
C    18.38999939  32.66999817  51.38000107
C    19.42000008  32.56000137  50.40000153
C    20.62000084  33.22999954  50.51000214
C    20.96999931  33.87000275  51.72000122
C    20.06999969  33.87000275  52.76000214
C    18.73999977  33.38999939  52.57999802
C    14.60000038  32.59999847  51.81999969
C    13.88000011  33.02000046  52.95999908
C    12.48999977  33.00000000  52.97000122
C    22.32000160  34.56000137  51.76000214
H    22.83453751  34.07404709  52.58897781
H    18.00000000  34.36000061  54.29000092
H    16.84999847  32.45999908  49.98000336
H    19.13999939  32.19000244  49.41999817
H    21.27000046  33.38000107  49.65000153
H    20.28000069  34.56999969  53.56999969
H    11.92999935  33.25000000  53.87000275
H    22.79999924  34.45000076  50.77999878
H    22.23999977  35.63999939  51.95999908
S    11.43000031  31.52000046  49.43999863
C     8.78000069  31.24000168  50.20999908
C    10.01999950  31.75000000  50.48999786
C    10.38000011  32.36000061  51.73999786
C     9.39999962  32.50000000  52.70000076
C     8.07999992  32.04999924  52.47000122
C     7.07999992  32.16999817  53.47999954
C     5.80999947  31.70999908  53.22000122
C     5.53999996  31.02999878  52.00000000
C     6.50000000  30.84000015  51.03000259
C     7.81000042  31.35999870  51.23000336
C    11.82000065  32.55000305  51.83000183
C    12.53999901  32.13000107  50.68000031
C    13.92000008  32.07999802  50.70999908
C     4.15999985  30.48000145  51.70999908
H     3.64294004  31.10330391  50.98044968
H     8.60999966  30.68000031  49.29000092
H     9.52999973  32.97999954  53.67000198
H     7.42000008  32.56000137  54.43000031
H     4.94999981  31.98999786  53.81999969
H     6.25999975  30.31999969  50.11000061
H    14.48999977  31.65999985  49.87999725
H     3.55999994  30.36000061  52.62000275
H     4.35999966  29.51000023  51.25000000
