96

S    15.26000023  33.45000076  60.38000107
C    17.93000031  33.91999817  59.58000183
C    16.70999908  33.32999802  59.36000061
C    16.36000061  32.72999954  58.11000061
C    17.30999947  32.69000244  57.09999847
C    18.60000038  33.22999954  57.27000427
C    19.57999992  33.13000107  56.24000168
C    20.79000092  33.75000000  56.38999939
C    21.12999916  34.36999893  57.63000107
C    20.20999908  34.36999893  58.64999771
C    18.89999962  33.81999969  58.54999924
C    14.93999958  32.45999908  57.98999786
C    14.17000008  32.77000046  59.13999939
C    12.79999924  32.97000122  59.15000153
C    22.50999832  34.97000122  57.77999878
H    23.09165192  34.38125229  58.48933029
H    18.22000122  34.29000092  60.56000137
H    17.00000000  32.22999954  56.16000366
H    19.38999939  32.50000000  55.37000275
H    21.45999908  33.69999695  55.52999878
H    20.32999992  34.86999893  59.59999847
H    12.22000027  33.18000031  60.05000305
H    23.01000214  35.13000107  56.81999969
H    22.32999992  35.95999908  58.23999786
S    11.68000031  31.21999931  55.80999756
C     9.02999973  31.14999962  56.44000244
C    10.26999950  31.63000107  56.79999924
C    10.62000084  32.36000061  57.98999786
C     9.59000015  32.68000031  58.86000061
C     8.30999947  32.11999893  58.61999893
C     7.28999996  32.29999924  59.59000015
C     6.01999998  31.83000183  59.34999847
C     5.75000000  31.09999847  58.15999985
C     6.71999979  30.86000061  57.22000122
C     8.01999950  31.42000008  57.39999771
C    12.05999947  32.52000046  58.04999924
C    12.79000092  31.94999886  56.97999954
C    14.18000031  31.87000084  56.95999908
C     4.39000034  30.48999977  57.95000076
H     3.83387470  30.90353012  57.10868073
H     8.86999989  30.51000214  55.58000183
H     9.70000076  33.20000076  59.80999756
H     7.53000021  32.86999893  60.48999786
H     5.23999977  31.97000122  60.08999634
H     6.48999977  30.36000061  56.27999878
H    14.78999996  31.54000092  56.12999725
H     3.72000003  30.59000015  58.81999969
H     4.59000015  29.40999985  57.88999939
S    11.84999943  29.37999916  52.52999878
C     9.30999947  28.61000061  53.33000183
C    10.65999985  28.64000130  53.61000061
C    11.26000023  27.98999977  54.72999954
C    10.43000031  27.46999931  55.70999908
C     9.03999996  27.34000015  55.45999908
C     8.15999985  26.77999878  56.42000198
C     6.81999969  26.61999893  56.18999863
C     6.23000050  27.21999931  55.04000092
C     7.07999992  27.82999992  54.13999939
C     8.47999954  27.96999931  54.29000092
C    12.69999981  28.19999886  54.80999756
C    13.12000084  28.97000122  53.69999695
C    14.40000057  29.51999855  53.63999939
C     4.74000025  27.34000015  54.84000397
H     4.39818621  26.87712669  53.91425705
H     8.85999966  29.10000038  52.47000122
H    10.85000038  27.14999962  56.65000153
H     8.64999962  26.52000046  57.36000061
H     6.12999964  26.09999847  56.84999847
H     6.63999987  28.25000000  53.23999786
H    14.73999977  30.00999832  52.72999573
H     4.21999979  26.90000153  55.70000076
H     4.44000006  28.38999939  54.75000000
S    16.15999985  28.11000061  56.97999954
C    18.71999931  28.87000084  56.06999969
C    17.35999870  28.84000015  55.90000153
C    16.68000031  29.34999847  54.73999786
C    17.43999863  29.84000015  53.69999695
C    18.84000015  30.03999901  53.86000061
C    19.70999908  30.51000214  52.84000015
C    21.00000000  30.92000008  53.04000092
C    21.60000038  30.55999947  54.27999878
C    20.85000038  29.82000160  55.17000198
C    19.47000122  29.51999855  55.05000305
C    15.22999954  29.27999878  54.73999786
C    14.84000015  28.47999954  55.84000015
C    13.55999947  27.93999863  55.87999725
C    23.01000214  31.04000092  54.47999954
H    23.47963715  30.57748222  55.34811401
H    19.29000092  28.48999977  56.91999817
H    16.94000053  30.19000053  52.80000305
H    19.25000000  30.78000069  51.88999939
H    21.42000008  31.51000023  52.22999954
H    21.35999870  29.43000031  56.04999924
H    13.14000034  27.60000038  56.81000137
H    22.98999977  32.13999939  54.43999863
H    23.59999847  30.69999886  53.61999893
