96

S    14.47000027  33.01000214  60.26000214
C    17.13000107  33.34999847  59.38000107
C    15.85000038  32.88000107  59.15999985
C    15.43000031  32.33000183  57.90999985
C    16.34000015  32.27999878  56.86999893
C    17.68000031  32.68000031  57.09000015
C    18.63000107  32.63000107  56.03000259
C    19.95000076  32.97999954  56.19999695
C    20.38000107  33.44000244  57.47000122
C    19.47999954  33.52999878  58.50999832
C    18.11000061  33.20000076  58.36000061
C    13.96999931  32.33000183  57.81000137
C    13.27999973  32.76000214  58.96999741
C    11.89000034  32.79999924  59.05000305
C    21.78999901  33.91999817  57.69000244
H    22.30058098  33.34559631  58.46296310
H    17.32999992  33.81000137  60.34000015
H    16.09000015  31.80999947  55.93000031
H    18.19000053  32.34999847  55.06999969
H    20.65999985  32.93999863  55.38000107
H    19.73999977  33.95000076  59.47999954
H    11.42000008  32.97999954  60.00999832
H    22.46000099  33.87000275  56.81999969
H    21.84000015  34.93000031  58.11000061
S    10.62999916  31.60000038  55.47999954
C     7.97999954  31.40000153  56.30000305
C     9.26999950  31.77000046  56.60999680
C     9.67000008  32.37999725  57.84000015
C     8.67999935  32.55000305  58.79000092
C     7.36999989  32.06000137  58.60000229
C     6.34999990  31.97000122  59.59000015
C     5.09999990  31.47000122  59.33000183
C     4.67000008  31.19999886  58.00000000
C     5.64000034  31.22999954  57.02000046
C     7.00000000  31.50000000  57.31999969
C    11.11999989  32.50999832  57.91999817
C    11.77999973  32.00000000  56.77000046
C    13.17000008  31.88999939  56.75000000
C     3.28999996  30.69999886  57.65999603
H     2.70426345  31.41431236  57.08140564
H     7.77999973  31.00000000  55.31000137
H     9.11999989  32.95000076  59.71000290
H     6.69000053  32.19000244  60.59999847
H     4.40000010  31.17000198  60.10000229
H     5.36000013  30.92000008  56.00999832
H    13.63000011  31.54999924  55.83000183
H     2.86000013  30.45000076  58.63999939
H     3.44000006  29.80999947  57.02999878
S    10.60999966  29.47999954  52.18999863
C     8.01999950  29.07999992  53.01000214
C     9.35000038  28.88999939  53.29000092
C     9.85000038  28.23999786  54.45999908
C     8.93999958  27.72999954  55.38000107
C     7.55999994  27.98999977  55.20999908
C     6.58999968  27.40999985  56.06999969
C     5.23000002  27.57999802  55.90000153
C     4.81999969  28.29999924  54.75000000
C     5.71000004  28.80000114  53.82999802
C     7.11000013  28.68000031  54.02999878
C    11.30000019  28.31000137  54.47000122
C    11.84999943  29.04000092  53.37999725
C    13.17000008  29.43000031  53.26000214
C     3.35999990  28.59000015  54.45999908
H     3.03859401  28.10432053  53.53863525
H     7.63000011  29.56999969  52.12999725
H     9.18000031  27.19000053  56.29000092
H     6.88000011  26.65999985  56.79999924
H     4.48999977  27.23999977  56.62000275
H     5.25000000  29.33000183  53.00000000
H    13.50999928  29.90999985  52.34000397
H     2.84000015  28.25000000  55.37000275
H     3.26999998  29.67000008  54.31000137
S    14.68999958  28.29999924  56.75000000
C    17.28000069  28.97999954  56.12999725
C    15.97000027  29.01000023  55.73999786
C    15.46000004  29.40000153  54.45999908
C    16.39999962  29.82000160  53.54000092
C    17.77000046  29.90999985  53.87000275
C    18.75000000  30.26000023  52.88999939
C    20.06000137  29.93999863  53.11999893
C    20.52999878  29.41999817  54.34999847
C    19.59000015  29.05999947  55.28999710
C    18.20000076  29.31999969  55.11000061
C    14.01999950  29.18999863  54.34999847
C    13.47000027  28.51000023  55.47000122
C    12.20000076  27.95000076  55.47999954
C    22.00000000  29.26000214  54.66999817
H    22.37543106  29.70626831  55.59086609
H    17.69000053  28.36000061  56.93000031
H    16.18999863  29.99000168  52.49000168
H    18.38999939  30.62999916  51.93000031
H    20.76000023  30.17000008  52.31999969
H    19.93999863  28.77000046  56.26999664
H    11.84999943  27.44999886  56.38000107
H    22.46999931  29.70000076  53.77999878
H    22.19000053  28.18000031  54.72000122
