96

S    15.01999950  32.88000107  60.28999710
C    17.68000031  32.93999863  59.38999939
C    16.38000107  32.54000092  59.20000076
C    15.90000057  32.27999878  57.87000275
C    16.76000023  32.22999954  56.79000092
C    18.12999916  32.55000305  56.95999908
C    19.06999969  32.57999802  55.90000153
C    20.36000061  33.00000000  56.14999771
C    20.79000092  33.40999985  57.43999863
C    19.89999962  33.34999847  58.47999954
C    18.55999947  32.90000153  58.29000092
C    14.45000076  32.27000046  57.81999969
C    13.80000019  32.63999939  59.02000046
C    12.42000008  32.68000031  59.15999985
C    22.18000031  34.01000214  57.56000137
H    22.82681084  33.34186554  58.12862396
H    17.97999954  33.48999786  60.28999710
H    16.39999962  32.00000000  55.79000092
H    18.71000099  32.21999741  54.93999863
H    21.09000015  32.85000229  55.35999680
H    20.23999977  33.77000046  59.43000031
H    11.90000057  32.97000122  60.06999969
H    22.53000069  34.20000076  56.53999710
H    22.15999985  34.97000122  58.08000183
S    11.28000069  31.25000000  55.59000015
C     8.69000053  30.75000000  56.56000137
C     9.96000004  31.21000099  56.77999878
C    10.31000042  31.78999901  58.04000092
C     9.28999996  31.97000122  58.95999908
C     7.95000029  31.57999992  58.72000122
C     6.89000034  31.80999947  59.62999725
C     5.64000034  31.27000046  59.43999863
C     5.40999985  30.45000076  58.29999924
C     6.35999966  30.29999924  57.31999969
C     7.63000011  30.90999985  57.49000168
C    11.72000027  32.14999771  58.06999969
C    12.35999966  31.90000153  56.83000183
C    13.73999977  31.96000099  56.65000153
C     4.03999996  29.82000160  58.22999954
H     3.47857904  30.33167458  57.44827271
H     8.52000046  30.30999947  55.56999969
H     9.44000053  32.34000015  59.97000122
H     7.05999947  32.27000046  60.59999847
H     4.90999985  31.31999969  60.24000168
H     6.19000006  29.73999977  56.39999771
H    14.13000011  31.57999992  55.70999908
H     3.55999994  29.77999878  59.20999908
H     4.18000031  28.78999901  57.85999680
S    15.29999924  33.77000046  53.87000275
C    17.86999893  34.13000107  52.95000076
C    16.61000061  33.65000153  52.68000031
C    16.18999863  33.20000076  51.38999939
C    17.10000038  33.18000031  50.35999680
C    18.45000076  33.50000000  50.63000107
C    19.45999908  33.29999924  49.65000153
C    20.76000023  33.69999695  49.82999802
C    21.18000031  34.11000061  51.11999893
C    20.22000122  34.29000092  52.09999847
C    18.84000015  34.00000000  51.91999817
C    14.75999928  32.90999985  51.38999939
C    14.14999962  33.20999908  52.63999939
C    12.79999924  33.08000183  52.91999817
C    22.62000084  34.54999924  51.25999832
H    23.15412903  33.93753052  51.98641968
H    18.17000008  34.36000061  53.96999741
H    17.04000092  32.59000015  49.43999863
H    19.12999916  32.97999954  48.66000366
H    21.38000107  33.77000046  48.93000031
H    20.43000031  34.73999786  53.06999969
H    12.35000038  33.38999939  53.86000061
H    23.12999916  34.52000046  50.30000305
H    22.56999969  35.61000061  51.55000305
S    11.38000011  31.64999962  49.43999863
C     8.76000023  31.45000076  50.52000046
C    10.06999969  31.84000015  50.61999893
C    10.51000023  32.45999908  51.84000015
C     9.70000076  32.54000092  52.95999908
C     8.38000011  32.04999924  52.85999680
C     7.42000008  32.14999771  53.92000198
C     6.14000034  31.67000008  53.81000137
C     5.71000004  30.98999977  52.63999939
C     6.58999968  30.89999962  51.59000015
C     7.88999987  31.47999954  51.63999939
C    11.94000053  32.70999908  51.88000107
C    12.51000023  32.33000183  50.63000107
C    13.88000011  32.36000061  50.45000076
C     4.28000021  30.55999947  52.41000366
H     3.87582564  30.97835541  51.48820114
H     8.42000008  31.05999947  49.55999756
H    10.15999985  32.84000015  53.89999771
H     7.76000023  32.56999969  54.86000061
H     5.50000000  31.94000053  54.65000153
H     6.15000010  30.38999939  50.72999954
H    14.37999916  31.94999886  49.58000183
H     3.65999985  30.95999908  53.22000122
H     4.19999981  29.47000122  52.44999695
