96

S    14.22000027  32.72000122  60.50000000
C    16.82999992  32.88000107  59.56999969
C    15.52999973  32.52000046  59.31000137
C    15.10000038  32.07999802  58.02000046
C    16.00000000  31.97999954  56.97000122
C    17.35999870  32.27000046  57.19999695
C    18.30999947  32.11000061  56.14999771
C    19.62000084  32.43999863  56.36000061
C    20.05000114  32.85000229  57.64999771
C    19.13999939  32.99000168  58.68000031
C    17.77000046  32.65000153  58.53000259
C    13.64999962  31.97999954  57.95000076
C    13.09000015  32.25000000  59.22000122
C    11.71000004  32.23999786  59.41999817
C    21.44000053  33.38999939  57.90000153
H    22.03067780  32.72815704  58.53337860
H    17.11000061  33.23999786  60.56000137
H    15.52000046  31.71999931  56.02000427
H    17.86999893  31.80000114  55.20999908
H    20.28000069  32.50000000  55.48999786
H    19.45999908  33.36000061  59.65000153
H    11.30000019  32.25000000  60.41999817
H    21.91999817  33.63999939  56.95000076
H    21.38999939  34.34000015  58.43999863
S    10.24000072  31.35000038  55.81999969
C     7.62000036  31.25999832  56.75000000
C     8.93000031  31.59000015  56.98999786
C     9.40999985  31.90999985  58.29999924
C     8.50000000  32.00999832  59.34000015
C     7.14999962  31.63999939  59.15999985
C     6.21999979  32.00999832  60.18000031
C     4.88999987  31.77999878  59.91000366
C     4.44000006  31.18000031  58.70999908
C     5.32000017  31.04000092  57.64999771
C     6.71000004  31.28999901  57.84000015
C    10.85999966  32.04999924  58.33000183
C    11.44000053  31.76000214  57.05999756
C    12.81000042  31.64999962  56.88000107
C     3.00999999  30.73999786  58.47999954
H     2.67009544  30.98784637  57.47444534
H     7.22000027  30.79000092  55.84999847
H     8.76000023  32.42000198  60.31000137
H     6.57999992  32.42000198  61.11999893
H     4.07999992  31.97999954  60.61000061
H     5.12000036  30.59000015  56.69000244
H    13.26000023  31.55999947  55.89000320
H     2.39999986  31.11999893  59.29999924
H     2.92000008  29.65999985  58.61000061
S    10.54999924  28.90000153  52.50000000
C     7.86000013  28.65999985  53.40000153
C     9.21000004  28.45999908  53.57999802
C     9.75000000  27.79000092  54.72000122
C     8.86999989  27.36000061  55.68999863
C     7.48000050  27.52000046  55.47999954
C     6.52999973  26.86000061  56.31000137
C     5.19000006  26.90000153  56.04000092
C     4.61999989  27.59000015  54.93999863
C     5.51000023  28.25000000  54.13000107
C     6.90999985  28.22000122  54.34999847
C    11.18999958  27.93999863  54.88999939
C    11.77000046  28.52999878  53.73000336
C    13.07999992  28.98999977  53.73000336
C     3.17000008  27.29000092  54.64000320
H     2.85606003  27.56826401  53.63396454
H     7.53000021  29.13000107  52.48000336
H     9.09000015  26.52000046  56.35000229
H     6.90999985  26.34000015  57.18999863
H     4.53000021  26.34000015  56.70000076
H     5.26000023  28.68999863  53.15999985
H    13.45000076  29.44000053  52.81000137
H     3.00000000  26.22999954  54.86999893
H     2.50999975  27.82999992  55.33000183
S    14.61999989  27.57999802  57.09000015
C    17.20000076  28.22000122  56.37000275
C    15.85999966  28.42000008  56.13999939
C    15.31999969  29.05999947  54.97000122
C    16.21000099  29.60000038  54.06000137
C    17.60000038  29.43000031  54.23999786
C    18.53999901  29.87999916  53.27000046
C    19.88000107  29.76000023  53.53000259
C    20.34000015  29.07999992  54.68999863
C    19.47000122  28.35000038  55.45000076
C    18.07999992  28.65999985  55.34999847
C    13.89000034  28.81000137  54.86000061
C    13.35000038  28.06999969  55.94999695
C    12.00000000  27.72000122  56.00999832
C    21.83000183  28.81000137  54.62999725
H    22.30751419  29.20198822  55.52801132
H    17.63000107  27.73999977  57.23999786
H    15.73999977  30.07999802  53.20999908
H    18.19000053  30.23999977  52.29999924
H    20.58000183  30.05000114  52.75000000
H    19.81999969  27.63999939  56.19999695
H    11.49000072  27.15999985  56.77999878
H    22.27999878  29.25000000  53.73000336
H    22.01000023  27.72999954  54.65000153
