96

S    15.97000027  32.70000076  60.56999969
C    18.50000000  33.36999893  59.73999786
C    17.29999924  32.79000092  59.38999939
C    16.94000053  32.36000061  58.06999969
C    17.88999939  32.47999954  57.08000183
C    19.19999886  32.85000229  57.47000122
C    20.31999969  32.70999908  56.60999680
C    21.61000061  33.06999969  56.91999817
C    21.93000031  33.67000198  58.16999817
C    20.86000061  33.81999969  59.01000214
C    19.52000046  33.39999771  58.75999832
C    15.50000000  32.13000107  57.95999908
C    14.88000011  32.31999969  59.22000122
C    13.50000000  32.29000092  59.36999893
C    23.36000061  34.03000259  58.50000000
H    23.90204048  33.20980835  58.97071838
H    18.50000000  33.84999847  60.70999908
H    17.75000000  31.98999786  56.11999893
H    20.06999969  32.25000000  55.65000153
H    22.36000061  32.93999863  56.13999939
H    20.97999954  34.04000092  60.06999969
H    13.12999916  32.65000153  60.33000183
H    23.82999802  34.36999893  57.56999969
H    23.29000092  34.83000183  59.25000000
S    12.15999985  31.18999863  55.84000015
C     9.55999947  30.62000084  56.76000214
C    10.84000015  31.04999924  57.02000046
C    11.28999901  31.56999969  58.27999878
C    10.31999969  31.63999939  59.27000046
C     8.94999981  31.44000053  59.00000000
C     7.92999983  31.57999992  59.98000336
C     6.63000011  31.21000099  59.72000122
C     6.28999996  30.76999855  58.40999985
C     7.20000029  30.65999985  57.37999725
C     8.56000042  30.89999962  57.71999741
C    12.72999954  31.80999947  58.30999756
C    13.36999989  31.63999939  57.05999756
C    14.75000000  31.71999931  56.86000061
C     4.85000038  30.36000061  58.22999954
H     4.51690245  30.70727348  57.25196838
H     9.22000027  30.23999977  55.79999924
H    10.70000076  32.00999832  60.21999741
H     8.23000050  31.78999901  61.00000000
H     5.89999962  31.07999992  60.51000214
H     6.98000002  30.19000053  56.42000198
H    15.21999931  31.56999969  55.89000320
H     4.28999996  30.76000023  59.08000183
H     4.85000038  29.26000214  58.20999908
S    12.88000011  29.09000015  52.84000015
C    10.36999893  28.26000023  53.43999863
C    11.67000008  28.29000092  53.86000061
C    12.23000050  27.79000092  55.08999634
C    11.28000069  27.29000092  55.96000290
C     9.92000008  27.22999954  55.58000183
C     8.97000027  26.73999977  56.52999878
C     7.62000036  26.88999939  56.29000092
C     7.13999987  27.47999954  55.08999634
C     8.01000023  27.93000031  54.13000107
C     9.40999985  27.76000023  54.34999847
C    13.64999962  28.11000061  55.21999741
C    14.09000015  28.88000107  54.10999680
C    15.39999962  29.34999847  54.09000015
C     5.66999960  27.79000092  54.89999771
H     5.24928617  27.03414345  54.23683929
H     9.98000050  28.75999832  52.55000305
H    11.54999924  27.01000023  56.97999954
H     9.35000038  26.28999901  57.43999863
H     6.94999981  26.54999924  57.05999756
H     7.73999977  28.59000015  53.29999924
H    15.75000000  29.73999977  53.13000107
H     5.18000031  27.81999969  55.87999725
H     5.64000034  28.81999969  54.51000214
S    17.00000000  28.32999992  57.57999802
C    19.60000038  28.92000008  56.66999817
C    18.22999954  28.97999954  56.47999573
C    17.68000031  29.40000153  55.21999741
C    18.52000046  29.82999992  54.20999908
C    19.92000008  29.76000023  54.36000061
C    20.81000137  30.17999840  53.33000183
C    22.18000031  30.17000008  53.41999817
C    22.69000053  29.82000160  54.68999863
C    21.87999916  29.37999916  55.70999908
C    20.45999908  29.28999901  55.61000061
C    16.25000000  29.13000107  55.18000031
C    15.73999977  28.52000046  56.35000229
C    14.46000004  27.98000145  56.35000229
C    24.09000015  30.22999954  55.07999802
H    24.56613159  29.51225090  55.74800491
H    19.95000076  28.68000031  57.67000198
H    18.09000015  30.02000046  53.22999954
H    20.34000015  30.59999847  52.44999695
H    22.86000061  30.53999901  52.64999771
H    22.29999924  29.28999901  56.70999908
H    14.14000034  27.42000198  57.22999954
H    24.03000069  31.21000099  55.56000137
H    24.57999992  30.32999992  54.09000015
