96

S    15.31999969  32.93000031  60.38000107
C    17.86000061  33.52999878  59.38000107
C    16.61000061  32.97999954  59.15999985
C    16.22999954  32.66999817  57.81000137
C    17.14999962  32.72999954  56.77999878
C    18.48999977  33.09000015  57.02999878
C    19.48999977  33.06999969  56.02000427
C    20.76999855  33.44000244  56.37000275
C    21.17000198  33.75000000  57.70000076
C    20.15000153  34.03000259  58.57999802
C    18.81999969  33.59000015  58.34000015
C    14.80000019  32.40999985  57.81000137
C    14.17000008  32.62000275  59.06000137
C    12.81000042  32.50999832  59.36000061
C    22.59000015  34.20999908  57.95999908
H    23.07360840  33.74772644  58.82053757
H    18.12000084  33.81000137  60.38999939
H    16.77000046  32.36000061  55.83000183
H    19.23999977  32.88999939  54.98000336
H    21.47000122  33.52999878  55.54000092
H    20.36999893  34.63000107  59.45999908
H    12.39999962  32.68000031  60.34999847
H    23.22999954  34.06999969  57.08000183
H    22.46000099  35.29000092  58.02999878
S    11.40999985  31.57999992  55.75000000
C     8.84000015  31.02999878  56.72999954
C    10.14000034  31.42999840  56.97000122
C    10.62999916  31.86000061  58.23999786
C     9.68000031  31.91999817  59.25000000
C     8.34999943  31.47999954  59.08000183
C     7.42999983  31.27000046  60.14999771
C     6.23000050  30.62999916  59.94999695
C     5.82000017  30.22000122  58.64999771
C     6.65999985  30.36000061  57.57999802
C     7.90999985  31.01000023  57.80000305
C    12.05000019  32.18000031  58.22999954
C    12.63000011  32.06999969  56.93999863
C    14.00000000  32.11999893  56.70000076
C     4.42000008  29.73999977  58.34000015
H     4.00634623  30.34621620  57.53408813
H     8.69999981  30.45999908  55.81999969
H    10.01000023  32.37999725  60.19000244
H     7.86999989  31.54999924  61.10000229
H     5.49000025  30.56999969  60.73999786
H     6.44000006  29.96000099  56.59000015
H    14.42000008  32.02999878  55.70000076
H     3.73000002  29.79000092  59.20000076
H     4.42000008  28.72999954  57.91999817
S    15.24000072  33.67000198  54.06000137
C    17.79999924  34.31999969  53.09000015
C    16.54999924  33.79000092  52.87000275
C    16.10000038  33.44000244  51.56000137
C    17.11000061  33.25000000  50.63000107
C    18.46999931  33.56999969  50.84999847
C    19.50000000  33.27999878  49.92000198
C    20.76000023  33.75999832  50.20999908
C    21.04000092  34.63000107  51.30000305
C    20.07999802  34.80999756  52.27000427
C    18.81999969  34.18000031  52.11000061
C    14.68999958  33.08000183  51.52999878
C    14.06000042  33.27999878  52.78999710
C    12.69000053  33.09000015  52.97000122
C    22.43000031  35.20999908  51.45000076
H    23.03370285  34.62760544  52.14603424
H    18.05999947  34.90999985  53.96999741
H    16.79999924  32.80999756  49.68999863
H    19.31999969  32.68000031  49.02999878
H    21.56999969  33.58000183  49.52000046
H    20.27000046  35.36000061  53.18999863
H    12.28000069  33.38999939  53.93000031
H    22.86000061  35.42000198  50.45999908
H    22.29999924  36.22999954  51.79999924
S    11.36000061  31.96000099  49.36999893
C     8.78999996  31.44000053  50.34999847
C    10.03000069  32.00000000  50.54999924
C    10.46000004  32.55000305  51.79999924
C     9.57999992  32.63999939  52.85999680
C     8.30999947  32.04000092  52.65999603
C     7.27999973  32.11999893  53.63999939
C     5.98000002  31.67000008  53.54999924
C     5.69999981  30.92000008  52.37999725
C     6.61999989  30.79000092  51.36000061
C     7.92999983  31.32999802  51.46999741
C    11.90000057  32.72999954  51.86999893
C    12.51999950  32.44999695  50.61999893
C    13.89000034  32.61000061  50.48999786
C     4.28999996  30.45000076  52.09000015
H     3.87914252  30.96003151  51.21870041
H     8.43000031  31.18999863  49.36000061
H     9.72000027  33.11999893  53.82999802
H     7.59999990  32.55000305  54.58000183
H     5.26999998  31.93000031  54.31999969
H     6.32000017  30.42000008  50.38000107
H    14.29999924  32.47000122  49.48999786
H     3.65999985  30.76999855  52.93000031
H     4.25000000  29.37000084  51.90000153
