96

S    14.80000019  32.66999817  60.35999680
C    17.26000023  33.47999954  59.38999939
C    16.04999924  32.86999893  59.13000107
C    15.65000057  32.43000031  57.81999969
C    16.60000038  32.50999832  56.81999969
C    17.93000031  32.92000198  57.09999847
C    19.03000069  32.63999939  56.24000168
C    20.32999992  32.99000168  56.52000046
C    20.59000015  33.67000198  57.74000168
C    19.61000061  33.81000137  58.69999695
C    18.27000046  33.45999908  58.39000320
C    14.22999954  32.11000061  57.76000214
C    13.67000008  32.26000214  59.05000305
C    12.28000069  32.21999741  59.16999817
C    22.01999855  34.06999969  58.02999878
H    22.52560043  33.48606491  58.79907990
H    17.35999870  34.11999893  60.25000000
H    16.32999992  32.06999969  55.86000061
H    18.81000137  31.98999786  55.40000153
H    21.17000198  32.50999832  56.03000259
H    19.86999893  34.06999969  59.72000122
H    11.69000053  32.38999939  60.06999969
H    22.50999832  34.05999756  57.05999756
H    21.93000031  35.09000015  58.41999817
S    10.95000076  31.52000046  55.43000031
C     8.43000031  30.79000092  56.39999771
C     9.64999962  31.37000084  56.63000107
C    10.03999901  31.77000046  57.94000244
C     9.11999989  31.84000015  58.97999573
C     7.85000038  31.25999832  58.75999832
C     6.83000040  31.22999954  59.75000000
C     5.56999969  30.71000099  59.52999878
C     5.32000017  30.00999832  58.31999969
C     6.25999975  30.05000114  57.31999969
C     7.48000050  30.76999855  57.45999908
C    11.46999931  32.02999878  58.04999924
C    12.05999947  31.84000015  56.77999878
C    13.45000076  31.87000084  56.63000107
C     3.91999984  29.48999786  58.08000183
H     3.41655469  29.98635483  57.25037766
H     8.19999981  30.20999908  55.51000214
H     9.40999985  32.18000031  59.97000122
H     6.97000027  31.61000061  60.76000214
H     4.80999994  30.69999886  60.30000305
H     6.05999994  29.53000069  56.38999939
H    13.86000061  31.73000145  55.63999939
H     3.28000021  29.71999931  58.95000076
H     3.86000013  28.39999962  57.93000031
S    11.00000000  29.20000076  52.70000076
C     8.43999958  28.35000038  53.55999756
C     9.81000042  28.36999893  53.72000122
C    10.47000027  27.80999947  54.86000061
C     9.73999977  27.27999878  55.90000153
C     8.34000015  27.15999985  55.70999908
C     7.50999975  26.47999954  56.65000153
C     6.17999983  26.30000114  56.36000061
C     5.58000040  26.65999985  55.12000275
C     6.35999966  27.23999977  54.13999939
C     7.69999981  27.55000114  54.47999954
C    11.90000057  28.08000183  54.91000366
C    12.34000015  28.88999939  53.82999802
C    13.61999989  29.43000031  53.74000168
C     4.13999987  26.30000114  54.84000397
H     3.81415510  26.59042740  53.84121704
H     7.96999979  28.78000069  52.69000244
H    10.21999931  26.70000076  56.69000244
H     8.01000023  25.95999908  57.45999908
H     5.56999969  25.75000000  57.06999969
H     6.05000019  27.53999901  53.15000153
H    13.96000004  30.13000107  52.97999954
H     4.01999998  25.22000122  54.97000122
H     3.45999980  26.70999908  55.59000015
S    15.36999893  27.85000038  56.95999908
C    17.89999962  28.71000099  56.18999863
C    16.54000092  28.78999901  56.02000427
C    15.97000027  29.33000183  54.81999969
C    16.79999924  29.84999847  53.85000229
C    18.20000076  29.77000046  53.99000168
C    19.12999916  30.17000008  52.98999786
C    20.48999977  30.00999832  53.11999893
C    21.02999878  29.56000137  54.36000061
C    20.17999840  29.23999977  55.38999939
C    18.77000046  29.23000145  55.19000244
C    14.52999973  29.09000015  54.75000000
C    14.07999992  28.26000023  55.80999756
C    12.77999973  27.80999947  55.97000122
C    22.53000069  29.40999985  54.51000214
H    22.95826721  29.70978737  55.46646118
H    18.37000084  28.13999939  56.98999786
H    16.35000038  30.29999924  52.95999908
H    18.67000008  30.63999939  52.11999893
H    21.18000031  30.19000053  52.30999756
H    20.51000214  29.00000000  56.39999771
H    12.48000050  27.11999893  56.75000000
H    23.05999947  30.03000069  53.77999878
H    22.82999992  28.36000061  54.40999985
