96

S    18.48999977   6.30999994  58.66000366
C    21.09000015   6.11000013  58.09000015
C    19.85000038   5.64000034  57.72999573
C    19.52999878   5.18000031  56.42000198
C    20.53999901   4.96000004  55.51000214
C    21.84999847   5.33999968  55.89000320
C    22.92000008   5.36000013  54.94999695
C    24.11999893   5.98000002  55.22999573
C    24.41999817   6.48999977  56.52000046
C    23.43000031   6.48999977  57.48000336
C    22.13000107   6.01999998  57.12999725
C    18.09999847   5.36000013  56.16000366
C    17.43000031   5.82000017  57.32999802
C    16.03999901   5.78999996  57.37999725
C    25.75000000   7.09000015  56.90999985
H    26.12936020   6.43864632  57.69735336
H    21.28999901   6.78999996  58.90999603
H    20.23999977   4.55000019  54.54999924
H    22.65999985   4.96000004  53.97999573
H    24.84999847   6.19000006  54.45999908
H    23.55999947   6.98000002  58.43999863
H    15.53999996   5.95000029  58.33000183
H    26.50000000   7.11000013  56.11000061
H    25.56999969   8.07999992  57.35000229
S    14.80999947   4.35999966  53.94000244
C    12.17000008   4.05999994  55.00999832
C    13.43999958   4.57999992  55.05000305
C    13.85000038   5.32999992  56.19999695
C    12.94000053   5.65999985  57.18000031
C    11.59000015   5.26000023  57.08000183
C    10.62999916   5.65000010  58.06000137
C     9.31999969   5.29999971  57.84000015
C     8.89000034   4.59999990  56.68000031
C     9.80000019   4.25000000  55.70999908
C    11.18000031   4.51999998  55.91999817
C    15.29999924   5.44000053  56.24000168
C    16.00000000   5.01999950  55.07999802
C    17.38000107   4.90999985  55.05000305
C     7.46000004   4.11999989  56.60999680
H     6.88613033   4.67261505  55.86609650
H    11.90000057   3.28000021  54.29999924
H    13.26000023   6.19000006  58.08000183
H    10.93000031   6.17999983  58.95999908
H     8.56999969   5.61999989  58.55999756
H     9.48000050   3.79999995  54.78000259
H    17.87999916   4.26999998  54.33000183
H     6.90999985   4.23000002  57.55000305
H     7.42999983   3.02999997  56.45000076
S    14.70000076   2.49000001  50.97000122
C    12.05000019   2.06999993  51.76000214
C    13.38000107   1.81999993  51.95999908
C    13.92000008   1.12000000  53.09000015
C    13.02000046   0.64000005  54.02999878
C    11.64000034   0.82000005  53.80000305
C    10.65000057   0.19000000  54.61999893
C     9.31999969   0.41999999  54.38999939
C     8.82999992   1.15999997  53.27999878
C     9.72000027   1.77999997  52.43000031
C    11.10000038   1.58000004  52.70000076
C    15.36999893   1.13999999  53.15000153
C    15.93999958   1.90999997  52.11000061
C    17.22999954   2.44000006  52.14000320
C     7.40999985   1.66999996  53.18000031
H     6.85644960   1.13774002  52.40644836
H    11.68000031   2.52999997  50.84000015
H    13.34000015   0.09000000  54.91000366
H    11.03000069  -0.41999999  55.43000031
H     8.61999989   0.17999999  55.18000031
H     9.35999966   2.43000007  51.63999939
H    17.64999962   3.12999988  51.43000031
H     6.97000027   1.43999994  54.15999985
H     7.65999985   2.71000004  52.95999908
S    18.82999992   0.61000001  55.34000015
C    21.38999939   1.59999990  54.72999954
C    20.06999969   1.43999994  54.38000107
C    19.54000092   2.05999994  53.20000076
C    20.38000107   2.73999977  52.35000229
C    21.77000046   2.82999992  52.60000229
C    22.65000153   3.52999973  51.72000122
C    23.97000122   3.61999989  52.08000183
C    24.50000000   2.94000006  53.20999908
C    23.65999985   2.28999996  54.09000015
C    22.26000023   2.28999996  53.83999634
C    18.09000015   1.94000006  53.13000107
C    17.59000015   1.11000001  54.16999817
C    16.25000000   0.75000000  54.16999817
C    25.97999954   3.00999999  53.48999786
H    26.22806549   2.90368581  54.54605865
H    21.84000015   1.00000000  55.52000046
H    20.03999901   3.28999996  51.47999573
H    22.19000053   4.00000000  50.84999847
H    24.61999893   4.30000019  51.52999878
H    24.04999924   1.65999997  54.87999725
H    15.80999947   0.28000000  55.04000092
H    26.32999802   3.97000027  53.08000183
H    26.42000008   2.25000000  52.84000015
