96

S    18.25000000   6.34999990  58.88999939
C    20.86999893   6.76999998  58.08000183
C    19.64999962   6.21000004  57.81000137
C    19.31999969   5.52999973  56.59000015
C    20.29999924   5.36999989  55.63000107
C    21.59000015   5.91000032  55.83000183
C    22.69000053   5.73999977  54.94999695
C    23.94000053   6.25999975  55.20000076
C    24.23000145   6.88000011  56.45000076
C    23.15999985   7.11000013  57.28000259
C    21.83000183   6.67000008  57.02999878
C    17.88999939   5.29999971  56.44000244
C    17.19000053   5.73999977  57.60000229
C    15.80999947   5.73000002  57.67000198
C    25.58000183   7.42999983  56.86999893
H    25.97930527   6.95939207  57.76843262
H    21.17000198   7.16000032  59.05000305
H    20.10000038   4.63000011  54.86000061
H    22.39999962   5.18000031  54.06000137
H    24.79000092   6.19000006  54.52999878
H    23.36999893   7.68000031  58.18000031
H    15.27999973   5.92000008  58.60000229
H    26.35000038   7.32999992  56.10000229
H    25.52000046   8.52000046  56.98999786
S    14.67000008   4.42999983  54.10999680
C    11.96000004   4.44000006  54.75000000
C    13.25000000   4.76000023  55.12000275
C    13.61999989   5.29999971  56.39999771
C    12.60000038   5.46999979  57.30999756
C    11.26000023   5.10999966  57.01000214
C    10.26999950   4.97000027  58.02000046
C     8.96000004   4.72000027  57.68000031
C     8.61999989   4.26000023  56.38000107
C     9.59000015   4.25000000  55.40000153
C    10.92000008   4.67000008  55.68000031
C    15.06000042   5.36000013  56.53999710
C    15.77999973   4.94000006  55.40000153
C    17.15999985   5.07000017  55.27000046
C     7.30999994   3.56999993  56.09000397
H     6.70378399   4.15482044  55.39820480
H    11.71000004   3.94000006  53.81999969
H    12.84999943   5.69999981  58.34000015
H    10.59999943   5.12000036  59.03999710
H     8.14999962   4.55999994  58.40000153
H     9.38000011   3.91000009  54.38000107
H    17.63000107   4.86000013  54.31000137
H     6.76000023   3.58000016  57.04000092
H     7.40000010   2.53999996  55.70999908
S    18.55999947   6.67000008  52.77999878
C    21.15999985   6.93000031  51.77000046
C    19.88999939   6.43000031  51.63000107
C    19.40999985   5.98999977  50.35999680
C    20.29999924   5.89999962  49.29999924
C    21.68000031   6.17000008  49.47000122
C    22.62000084   6.02999973  48.40999985
C    23.95999908   6.28999996  48.59000397
C    24.37999916   6.97000027  49.77000427
C    23.40999985   7.26999998  50.70999908
C    22.10000038   6.71000004  50.72999954
C    17.97999954   5.75999975  50.37000275
C    17.35000038   6.12999964  51.59000015
C    15.97000027   6.21999979  51.66999817
C    25.86000061   7.18999958  49.95999908
H    26.17249870   7.21130657  51.00402451
H    21.53000069   7.32999992  52.70999908
H    19.92000008   5.38000011  48.41999817
H    22.20000076   5.78000021  47.43999863
H    24.65999985   6.09000015  47.78999710
H    23.80000114   7.72000027  51.62000275
H    15.44999981   6.46000004  52.60000229
H    26.40000153   6.35999966  49.47999954
H    26.30000114   8.09000015  49.51000214
S    14.56999969   4.90000010  48.20000076
C    11.97999954   4.59000015  49.15999985
C    13.26000023   5.03000021  49.38999939
C    13.67000008   5.65999985  50.61000061
C    12.74000072   5.97000027  51.58000183
C    11.40999985   5.53999996  51.37000275
C    10.32999992   5.92000008  52.21000290
C     9.02999973   5.50000000  52.02999878
C     8.64999962   4.72000027  50.90999985
C     9.63999939   4.59999990  49.95999908
C    11.02000046   4.85000038  50.17000198
C    15.11999989   5.80999947  50.63999939
C    15.73999977   5.38000011  49.45000076
C    17.13000107   5.40999985  49.31999969
C     7.37999964   3.91000009  50.81999969
H     6.79774046   4.29343939  49.98211670
H    11.59000015   4.23000002  48.20999908
H    13.01000023   6.56000042  52.45999908
H    10.72000027   6.38999987  53.11000061
H     8.27999973   5.78000021  52.76000214
H     9.51000023   4.00999975  49.05000305
H    17.53999901   5.31000042  48.31999969
H     6.81999969   3.98000002  51.76000214
H     7.69000006   2.86999989  50.63999939
