96

S    17.86999893   5.55000019  58.68999863
C    20.48999977   5.98000002  57.90000153
C    19.22000122   5.59999990  57.54000092
C    18.77000046   5.44000053  56.18999863
C    19.70000076   5.51000023  55.17000198
C    21.02000046   5.92000008  55.47000122
C    22.01000023   6.03999996  54.45000076
C    23.31000137   6.40999985  54.69999695
C    23.64999962   6.75000000  56.04000092
C    22.72999954   6.63000011  57.04999924
C    21.42000008   6.11999989  56.84000015
C    17.35000038   5.17000008  56.10000229
C    16.72000122   5.23000002  57.36999893
C    15.34000015   5.27999973  57.48000336
C    25.03000069   7.30999994  56.31999969
H    25.65361977   6.63677359  56.90818787
H    20.68000031   6.39999962  58.88000107
H    19.45000076   5.19000006  54.15999985
H    21.63000107   5.72000027  53.47999954
H    24.01000023   6.56000042  53.88999939
H    22.96999931   7.00999975  58.04000092
H    14.91000080   5.36999989  58.47000122
H    25.63999939   7.57999992  55.44000244
H    24.99000168   8.28999996  56.81999969
S    14.04000092   4.81999969  53.76999664
C    11.44999981   3.98000002  54.61000061
C    12.69999981   4.50000000  54.87999725
C    13.07000065   4.79999971  56.23000336
C    12.15999985   4.90999985  57.27000427
C    10.85999966   4.42000008  56.98999786
C     9.86999989   4.50000000  58.00000000
C     8.59000015   4.07000017  57.74000168
C     8.23000050   3.65000010  56.43000031
C     9.15999985   3.58999991  55.41999817
C    10.50000000   4.00999975  55.65999985
C    14.50000000   5.05999994  56.38000107
C    15.17000008   5.00999975  55.13000107
C    16.54000092   5.12000036  54.95999908
C     6.90000010   2.99000001  56.12999725
H     6.18224907   3.60115433  55.58280182
H    11.16000080   3.60000014  53.62999725
H    12.32999992   5.12000036  58.31999969
H    10.08999920   4.98000002  58.95000076
H     7.90000010   3.94000006  58.56999969
H     9.00000000   3.09999990  54.45999908
H    16.97999954   5.19000006  53.96999741
H     6.46000004   2.69000006  57.09000015
H     6.98999977   2.10999990  55.47999954
S    17.95999908   7.21000004  52.15999985
C    20.62999916   7.35000038  51.26999664
C    19.34000015   6.93000031  51.06999969
C    18.89999962   6.42000008  49.80999756
C    19.77000046   6.34999990  48.73000336
C    21.14000130   6.57999992  49.01000214
C    22.11999893   6.43000031  47.98999786
C    23.38000107   6.97000027  48.11000061
C    23.85000038   7.50999975  49.34000015
C    22.93999863   7.57000017  50.37000275
C    21.55999947   7.26999998  50.20000076
C    17.45000076   6.30999994  49.68999863
C    16.84000015   6.54999971  50.94999695
C    15.46000004   6.57999992  51.11999893
C    25.27000046   8.01999950  49.48999786
H    25.71013260   7.55147219  50.37026215
H    20.94000053   7.77999973  52.22000122
H    19.52000046   6.21000004  47.68000031
H    21.83000183   5.78999996  47.16999817
H    24.18000031   6.85999966  47.37999725
H    23.15000153   7.94000053  51.37000275
H    15.06999969   6.76000023  52.11999893
H    25.86000061   7.77999973  48.61000061
H    25.10000038   9.06000042  49.80999756
S    14.11999893   5.47999954  47.54000092
C    11.51999950   5.05000019  48.52000427
C    12.81000042   5.47999954  48.74000168
C    13.21000004   6.01000023  50.00999832
C    12.30000019   6.17999983  51.03000259
C    10.98000050   5.75999975  50.73999786
C    10.08999920   5.71000004  51.84999847
C     8.84000015   5.15999985  51.66999817
C     8.34000015   4.76000023  50.40000153
C     9.18000031   4.73000002  49.31999969
C    10.50000000   5.23000002  49.48999786
C    14.63999939   6.30999994  50.01999664
C    15.26999950   6.00000000  48.79000092
C    16.63999939   6.01999998  48.59000397
C     6.96000004   4.13999987  50.35999680
H     6.31014156   4.52563047  49.57445526
H    11.30000019   4.46999979  47.63000107
H    12.53999901   6.60000038  52.00000000
H    10.47000027   5.96000004  52.84000015
H     8.23000050   4.92000008  52.54000092
H     8.93999958   4.21999979  48.39000320
H    17.05000114   5.92000008  47.58999634
H     6.50000000   4.28999996  51.35000229
H     6.91999960   3.03999996  50.30000305
