96

S    17.94000053   6.24000025  58.79000092
C    20.52999878   6.71000004  57.90000153
C    19.27000046   6.21999979  57.62000275
C    18.88000107   5.66999960  56.35000229
C    19.88000107   5.50000000  55.40999985
C    21.21000099   5.89999962  55.68000031
C    22.23999977   5.75000000  54.71000290
C    23.52000046   6.17000008  55.00000000
C    23.80000114   6.85999966  56.20999908
C    22.86000061   6.98000002  57.21000290
C    21.53000069   6.57000017  56.90999985
C    17.43999863   5.51999998  56.27999878
C    16.79000092   5.77000046  57.50999832
C    15.40999985   5.77000046  57.61000061
C    25.13999939   7.51999950  56.40999603
H    25.69445610   7.00108624  57.19192123
H    20.62999916   7.34000015  58.77999878
H    19.52000046   5.32999992  54.40000153
H    22.04999924   5.35000038  53.70999908
H    24.20999908   5.88999987  54.20999908
H    23.13999939   7.44000006  58.15000153
H    14.88999939   6.11999989  58.50999832
H    25.73999786   7.55000019  55.50000000
H    24.93999863   8.59000015  56.56000137
S    14.15999985   4.46000004  54.03999710
C    11.52999973   4.23999977  54.98000336
C    12.81000042   4.72000027  55.14999771
C    13.21000004   5.31000042  56.38999939
C    12.28000069   5.63000011  57.36000061
C    10.95999908   5.14999962  57.21000290
C     9.89000034   5.26000023  58.15000153
C     8.57999992   4.92999983  57.91999817
C     8.21000004   4.23999977  56.72999954
C     9.21000004   4.11000013  55.79000092
C    10.55999947   4.51999998  55.98999786
C    14.65999985   5.42999983  56.47999573
C    15.29999924   5.00999975  55.28999710
C    16.68000031   5.07000017  55.19000244
C     6.84999990   3.65999985  56.44000244
H     6.36039352   4.32700014  55.73042679
H    11.33999920   3.65999985  54.08000183
H    12.64999962   6.11000013  58.27000046
H    10.14999962   5.73999977  59.09000015
H     7.96000004   5.07000017  58.80000305
H     8.97000027   3.65000010  54.84000397
H    17.12000084   4.78999996  54.22999954
H     6.11000013   3.54999995  57.23999786
H     6.90999985   2.66999984  55.96000290
S    17.87999916   6.67999983  52.62000275
C    20.55999947   6.94000006  51.88999939
C    19.27999878   6.60000038  51.52999878
C    18.94000053   6.11999989  50.22999573
C    19.98999977   5.88000011  49.36000061
C    21.28000069   6.38000011  49.61999893
C    22.29999924   6.32999992  48.61999893
C    23.45000076   7.07000017  48.75999832
C    23.69999886   7.72000027  50.00000000
C    22.79000092   7.69999981  51.03000259
C    21.55999947   7.00000000  50.89000320
C    17.48999977   6.00000000  50.06999969
C    16.79999924   6.39999962  51.25000000
C    15.43000031   6.28000021  51.43000031
C    25.10000038   8.21000004  50.27999878
H    25.64732361   7.46364975  50.85575867
H    20.86999893   7.20000029  52.90000153
H    19.82999992   5.32000017  48.43999863
H    22.20999908   5.73000002  47.71999741
H    24.25000000   7.00999975  48.02999878
H    23.02999878   8.15999985  51.98999786
H    15.01999950   6.57999992  52.38999939
H    25.62999916   8.34999943  49.31999969
H    25.13000107   9.17000008  50.79999924
S    14.34999943   4.69000006  47.93000031
C    11.72000027   4.44999981  48.68000031
C    12.97999954   4.88999987  49.03999710
C    13.25000000   5.58000040  50.26000214
C    12.25000000   5.78000021  51.19999695
C    10.95999908   5.26999998  50.90000153
C     9.89000034   5.42999983  51.81999969
C     8.63000011   4.94999981  51.56000137
C     8.38000011   4.32999992  50.30000305
C     9.36999989   4.23999977  49.34999847
C    10.67999935   4.75000000  49.59000015
C    14.68999958   5.77000046  50.35999680
C    15.36999893   5.46000004  49.15999985
C    16.75000000   5.46000004  49.01000214
C     7.11999989   3.58999991  49.93999863
H     6.53450203   4.26118088  49.31166077
H    11.54999924   3.68000007  47.93000031
H    12.41000080   6.25999975  52.15999985
H    10.08999920   5.91000032  52.77999878
H     7.79999971   5.03000021  52.25000000
H     9.15999985   3.51999998  48.55999756
H    17.28999901   5.10999966  48.13000107
H     6.61999989   3.25999999  50.86000061
H     7.26000023   2.64999986  49.40000153
