96

S    17.85000038   6.11000013  58.99000168
C    20.52999878   6.44000006  58.13000107
C    19.27999878   5.89999962  57.95999908
C    18.88000107   5.27999973  56.72000122
C    19.88000107   5.19999981  55.77000046
C    21.21999931   5.61999989  55.93000031
C    22.17000008   5.59999990  54.86000061
C    23.40999985   6.15999985  55.00999832
C    23.80000114   6.75000000  56.25000000
C    22.88999939   6.75000000  57.28000259
C    21.56999969   6.23000050  57.18000031
C    17.43999863   5.10999966  56.59000015
C    16.72000122   5.59000015  57.71999741
C    15.34000015   5.51000023  57.77000046
C    25.20999908   7.23000002  56.51000214
H    25.60371017   6.91503143  57.47637939
H    20.81000137   7.21000004  58.83999634
H    19.56999969   5.03999996  54.73999786
H    21.86000061   5.27999973  53.87000275
H    24.18000031   6.09000015  54.23999786
H    23.11000061   7.34000015  58.16999817
H    14.84000015   5.65000010  58.73000336
H    25.81000137   6.80999994  55.68999863
H    25.27000046   8.31999969  56.38000107
S    14.27999973   4.15999985  54.20000076
C    11.61999893   3.88000011  54.93000031
C    12.86000061   4.39000034  55.24000168
C    13.19000053   4.98000002  56.50000000
C    12.13999939   5.07999992  57.39999771
C    10.84000015   4.61999989  57.11000061
C     9.85000038   4.56999969  58.13999939
C     8.59000015   4.11999989  57.81999969
C     8.27999973   3.58999991  56.53999710
C     9.22999954   3.52999973  55.54999924
C    10.53999996   4.00999975  55.84000015
C    14.63999939   5.09000015  56.63000107
C    15.38000011   4.71000004  55.48999786
C    16.77000046   4.69999981  55.43000031
C     6.90000010   3.00000000  56.35000229
H     6.32158184   3.44988084  55.54307175
H    11.40999985   3.40000010  53.97999573
H    12.35999966   5.27999973  58.43999863
H    10.14000034   4.88000011  59.13999939
H     7.86000013   3.86999989  58.59000397
H     9.02000046   3.22000003  54.52999878
H    17.40999985   4.44000006  54.59999847
H     6.34000015   2.92000008  57.29000092
H     7.14999962   1.93000007  56.24000168
S    18.05999947   6.67999983  52.77000046
C    20.72000122   6.81999969  51.95000076
C    19.44000053   6.37000036  51.70000076
C    19.10000038   5.84999990  50.40999985
C    20.12000084   5.77000046  49.47999954
C    21.45999908   6.11999989  49.75999832
C    22.56000137   5.93999958  48.87000275
C    23.78000069   6.52999973  49.09999847
C    24.04000092   7.23000002  50.31000137
C    23.05999947   7.30000019  51.27999878
C    21.78999901   6.71999979  51.02000427
C    17.64999962   5.75000000  50.31000137
C    16.95000076   6.19000006  51.46999741
C    15.57000065   6.25000000  51.59000015
C    25.34000015   7.96000004  50.54000092
H    25.85190392   7.41965723  51.33629608
H    20.93000031   7.39000034  52.84999847
H    19.85999870   5.40999985  48.48999786
H    22.30999947   5.58000040  47.88000107
H    24.56000137   6.70000029  48.36000061
H    23.23999786   7.82000017  52.22000122
H    15.06000042   6.51999998  52.50999832
H    25.97999954   7.86999989  49.65999985
H    25.22999954   9.02999973  50.77000046
S    14.34000015   4.57999992  48.20999908
C    11.69000053   4.48000002  48.99000168
C    12.96000004   4.88000011  49.29000092
C    13.30999947   5.56999969  50.50000000
C    12.32999992   5.73999977  51.45000076
C    10.98999977   5.36000013  51.18999863
C    10.01000023   5.32000017  52.22000122
C     8.75000000   4.80999994  52.00000000
C     8.42000008   4.25000000  50.73999786
C     9.32999992   4.30999994  49.71000290
C    10.65999985   4.73000002  49.93999863
C    14.75999928   5.69999981  50.58000183
C    15.44000053   5.25000000  49.41999817
C    16.82999992   5.22000027  49.31999969
C     7.11000013   3.54999995  50.44000244
H     6.50488377   4.16935396  49.77793503
H    11.42000008   3.94000006  48.08000183
H    12.60000038   6.19999981  52.39999771
H    10.42000008   5.56999969  53.20000076
H     8.03999996   4.81999969  52.81999969
H     9.13999939   3.88000011  48.73000336
H    17.22999954   4.80999994  48.39000320
H     6.53999996   3.35000014  51.35000229
H     7.26999998   2.54999995  50.00999832
