96

S    17.84000015   6.01999998  58.48999786
C    20.43999863   6.39999962  57.55000305
C    19.15999985   5.96000004  57.30999756
C    18.68999863   5.53999996  56.02000427
C    19.61000061   5.47999954  54.99000168
C    20.96999931   5.82999992  55.21999741
C    21.97000122   5.91000032  54.22000122
C    23.29999924   6.17000008  54.43000031
C    23.68999863   6.63000011  55.72000122
C    22.72999954   6.78999996  56.69000244
C    21.38999939   6.34999990  56.50000000
C    17.27000046   5.22000027  56.04000092
C    16.64999962   5.46000004  57.29999924
C    15.26999950   5.42000008  57.48000336
C    25.10999870   7.07999992  55.94999695
H    25.45114517   6.48299742  56.79575729
H    20.75000000   6.94999981  58.43000031
H    19.19999886   5.49000025  53.99000168
H    21.67000008   5.52999973  53.23999786
H    23.97999954   6.00000000  53.60000229
H    23.02000046   7.22000027  57.64999771
H    14.73000050   5.82999992  58.31999969
H    25.78000069   7.00999975  55.07999802
H    25.12000084   8.14000034  56.23000336
S    13.89999962   4.23000002  53.90999603
C    11.25000000   4.01999998  54.86000061
C    12.56000042   4.38000011  55.06000137
C    13.03999996   4.90999985  56.31000137
C    12.11999989   5.15999985  57.30999756
C    10.77000046   4.75000000  57.16999817
C     9.77999973   4.79999971  58.18999863
C     8.43999958   4.61000013  57.93000031
C     8.05000019   3.98000002  56.72000122
C     9.02000046   3.65000010  55.80999756
C    10.34000015   4.18000031  55.93000031
C    14.47999954   5.01999950  56.38999939
C    15.08999920   4.69000006  55.14999771
C    16.46000099   4.80999994  54.98000336
C     6.57999992   3.73000002  56.50000000
H     6.11120367   4.35506201  55.73998260
H    10.98000050   3.45000005  53.96999741
H    12.51000023   5.56999969  58.23999786
H    10.06999969   5.10999966  59.19000244
H     7.76000023   4.90000010  58.72000122
H     8.78000069   3.00999999  54.95999908
H    16.87999916   4.48000002  54.02999878
H     5.92000008   3.74000025  57.36999893
H     6.65000010   2.72000027  56.05999756
S    13.81000042   2.03999996  50.90999985
C    11.23000050   1.34000003  51.70999908
C    12.58999920   1.15999997  51.84999847
C    13.12999916   0.59999996  53.04999924
C    12.23000050   0.04000000  53.93000031
C    10.81999969   0.12000000  53.79000092
C     9.92000008  -0.37000000  54.77000427
C     8.55000019  -0.41000003  54.64000320
C     8.07999992   0.25000000  53.47999954
C     8.88000011   0.82999998  52.51999664
C    10.29999924   0.79999995  52.63000107
C    14.53999996   0.92000002  53.27999878
C    15.01999950   1.64000010  52.15999985
C    16.36000061   1.95999992  52.00000000
C     6.58999968   0.38000000  53.26000214
H     6.10830593  -0.27878761  52.53745651
H    10.90000057   1.95999992  50.87999725
H    12.63000011  -0.46000001  54.80999756
H    10.38000011  -0.74000001  55.68000031
H     7.88999987  -0.74000001  55.44000244
H     8.47000027   1.44999993  51.72999954
H    16.72000122   2.46000004  51.10000229
H     6.11999989   0.25999999  54.23999786
H     6.32999992   1.36999989  52.87000275
S    17.97999954   0.69000000  55.40999985
C    20.55000114   1.48000002  54.55999756
C    19.19000053   1.47000003  54.38000107
C    18.60000038   2.05999994  53.20999908
C    19.43000031   2.66999984  52.29000092
C    20.84000015   2.71000004  52.39999771
C    21.70999908   3.25000000  51.40999603
C    23.06999969   3.21000004  51.59999847
C    23.59000015   2.59000015  52.77000046
C    22.79000092   2.06999993  53.75999832
C    21.37000084   2.14000010  53.61000061
C    17.19000053   1.72000003  53.09999847
C    16.68000031   1.03999996  54.23999786
C    15.38000011   0.57999998  54.34999847
C    25.10000038   2.51999998  52.90999985
H    25.42706299   2.38490868  53.94095993
H    20.88000107   1.08000004  55.52000046
H    18.94000053   3.07999992  51.40999603
H    21.32999802   3.75999975  50.54000092
H    23.68999863   3.50000000  50.76000214
H    23.19999886   1.63000000  54.65999985
H    14.94999981   0.06000000  55.20000076
H    25.43000031   3.48000002  52.50000000
H    25.48999977   1.72000003  52.28000259
