96

S    16.95999908   6.01999998  58.67000198
C    19.63000107   6.19999981  57.94000244
C    18.37000084   5.73999977  57.63000107
C    17.97999954   5.23999977  56.35000229
C    18.97999954   5.09999990  55.40999985
C    20.30999947   5.50000000  55.68000031
C    21.28999901   5.42999983  54.65000153
C    22.56999969   5.84999990  54.91000366
C    22.95999908   6.34000015  56.18999863
C    22.01000023   6.44000006  57.18000031
C    20.65999985   6.03999996  56.97000122
C    16.54000092   5.23000002  56.12999725
C    15.88000107   5.66999960  57.29999924
C    14.48999977   5.79999971  57.28000259
C    24.30999947   6.96000004  56.45999908
H    24.93042564   6.22547150  56.97345734
H    19.72999954   6.85999966  58.80000305
H    18.71999931   4.69999981  54.43999863
H    21.07000160   4.98000002  53.68999863
H    23.36999893   5.73000002  54.18000031
H    22.19000053   6.85999966  58.16999817
H    14.01999950   5.98000002  58.23999786
H    24.70000076   7.16000032  55.45999908
H    24.20999908   7.90999985  57.02000046
S    13.27999973   4.17000008  53.89999771
C    10.64000034   3.86000013  54.87999725
C    11.92999935   4.30999994  55.04000092
C    12.28000069   4.98000002  56.25999832
C    11.39000034   5.23999977  57.29000092
C    10.05000019   4.80999994  57.09999847
C     9.06999969   4.99000025  58.11000061
C     7.78999996   4.50000000  57.95999908
C     7.42000008   3.89999986  56.72000122
C     8.32999992   3.73000002  55.70000076
C     9.68000031   4.13999987  55.87999725
C    13.69999981   5.27999973  56.24000168
C    14.40999985   4.82999992  55.10000229
C    15.80000019   4.80999994  55.01999664
C     5.97000027   3.51999998  56.50000000
H     5.65118504   3.81756091  55.50104523
H    10.47000027   3.23000002  54.02000046
H    11.75000000   5.68000031  58.20999908
H     9.31999969   5.42999983  59.06999969
H     7.04999971   4.46999979  58.75000000
H     7.92000008   3.44000006  54.73999786
H    16.31000137   4.50000000  54.10999680
H     5.51000023   4.23000002  57.18999863
H     5.84000015   2.44000006  56.68000031
S    14.59000015   2.13000011  51.25000000
C    12.15000057   1.23000002  52.00000000
C    13.50000000   1.12000000  52.22000122
C    13.97999954   0.62000000  53.47000122
C    13.14000034   0.14000000  54.45999908
C    11.75000000   0.13000000  54.18000031
C    10.77000046  -0.34000003  55.11000061
C     9.42000008  -0.25000000  54.87999725
C     8.94999981   0.41000003  53.72000122
C     9.85999966   0.85000002  52.77999878
C    11.25000000   0.64000005  52.93000031
C    15.34999943   1.10000002  53.60000229
C    15.80999947   1.88999999  52.51999664
C    17.10000038   2.40999985  52.49000168
C     7.48000050   0.71999997  53.48999786
H     6.97495937   0.05135429  52.79290009
H    11.72000027   1.87999988  51.25000000
H    13.55999947  -0.11000000  55.43000031
H    11.14999962  -0.75999999  56.03000259
H     8.78000069  -0.62000000  55.66999817
H     9.44000053   1.35000002  51.90999985
H    17.47999954   3.05000019  51.70000076
H     6.94000006   0.71999997  54.45000076
H     7.35000038   1.75000000  53.13999939
S    18.82999992   0.62000000  55.59999847
C    21.42999840   1.26999998  54.68000031
C    20.06000137   1.38000000  54.58000183
C    19.47000122   2.05999994  53.47000122
C    20.28000069   2.63000011  52.50000000
C    21.68999863   2.56999993  52.56999969
C    22.53000069   3.12999988  51.56000137
C    23.90000153   3.16000009  51.73999786
C    24.46000099   2.46000004  52.84000015
C    23.67000198   1.77999997  53.73000336
C    22.25000000   1.87000012  53.68999863
C    18.02000046   1.98000002  53.46000290
C    17.53000069   1.28999996  54.59999847
C    16.20000076   0.87000000  54.68000031
C    25.92000008   2.57999992  53.20999908
H    26.03369522   3.16979766  54.11956406
H    21.84999847   0.71000004  55.51000214
H    19.84000015   3.10999990  51.63999939
H    22.19000053   3.74000025  50.73999786
H    24.51000023   3.78999996  51.10000229
H    24.10000038   1.42000008  54.66999817
H    15.75000000   0.46000001  55.56999969
H    26.53000069   3.07999992  52.44999695
H    26.34000015   1.58000004  53.36999893
