96

S    16.72999954   5.80999947  58.61999893
C    19.34000015   6.11999989  57.74000168
C    18.07999992   5.63000011  57.48000336
C    17.64999962   5.12000036  56.20999908
C    18.64999962   4.99000025  55.26000214
C    19.95000076   5.51999998  55.41999817
C    20.97999954   5.42000008  54.43999863
C    22.22999954   5.93999958  54.65999985
C    22.53999901   6.57000017  55.89000320
C    21.61000061   6.56000042  56.90999985
C    20.27000046   6.14000034  56.68000031
C    16.20000076   4.97000027  56.12999725
C    15.57999992   5.32999992  57.35000229
C    14.19999981   5.22000027  57.45999908
C    23.94000053   7.03000021  56.18999863
H    24.43822289   6.43924904  56.95869064
H    19.60000038   6.54999971  58.70999908
H    18.51000023   4.30999994  54.43000031
H    20.66999817   4.77999973  53.61999893
H    23.08000183   5.79999971  53.99000168
H    21.86000061   6.85999966  57.91999817
H    13.68000031   5.36000013  58.40999985
H    24.60000038   7.13999987  55.31999969
H    23.84000015   8.05999947  56.55000305
S    12.84000015   4.05999994  53.95000076
C    10.26000023   3.50000000  54.81999969
C    11.50000000   4.03999996  55.11000061
C    11.95000076   4.46000004  56.39999771
C    10.98000050   4.56999969  57.37999725
C     9.72000027   3.95000005  57.18999863
C     8.73000050   3.81000018  58.20000076
C     7.46999979   3.26999998  58.06999969
C     7.17000008   2.63000011  56.84000015
C     8.11999989   2.71000004  55.84999847
C     9.39999962   3.32999992  55.93000031
C    13.35999966   4.80999994  56.43000031
C    14.01999950   4.51999998  55.20999908
C    15.39999962   4.55999994  55.06000137
C     5.84999990   1.93000007  56.59000015
H     5.25962496   2.54882622  55.91426849
H    10.11000061   3.01999998  53.86000061
H    11.26000023   5.09999990  58.29000092
H     8.80000019   4.26999998  59.18000031
H     6.67999983   3.42999983  58.80000305
H     7.73000002   2.32999992  54.91000366
H    15.72999954   4.26999998  54.06000137
H     5.36999989   1.79000008  57.56000137
H     6.02999973   0.94999999  56.12999725
S    16.95000076   6.65000010  52.63000107
C    19.59000015   7.17999983  51.90000153
C    18.35000038   6.71999979  51.53999710
C    18.05999947   6.14000034  50.27000046
C    19.04000092   6.11000013  49.29000092
C    20.32999992   6.57999992  49.61000061
C    21.40999985   6.37000036  48.69999695
C    22.67000008   6.75000000  49.09999847
C    22.93999863   7.32999992  50.35999680
C    21.93000031   7.53000021  51.27999878
C    20.61000061   7.11000013  50.91999817
C    16.63999939   5.86999989  50.10000229
C    15.90999985   6.11999989  51.29000092
C    14.52999973   5.98999977  51.40999603
C    24.38999939   7.62000036  50.66999817
H    24.90403938   6.86321926  51.26257324
H    19.85999870   7.59000015  52.88000107
H    18.81999969   5.49000025  48.41999817
H    21.19999886   5.75999975  47.81999969
H    23.52999878   6.34999990  48.57999802
H    22.21999931   7.88000011  52.25999832
H    14.15999985   5.98000002  52.43000031
H    24.96999931   7.63999987  49.72999954
H    24.51999855   8.56000042  51.20999908
S    13.40000057   4.77999973  47.84000015
C    10.77000046   4.40000010  48.67000198
C    12.05999947   4.75000000  49.00000000
C    12.35999966   5.23000002  50.31000137
C    11.39000034   5.27999973  51.29000092
C    10.06000042   4.88999987  51.00000000
C     8.97000027   4.92000008  51.93000031
C     7.72000027   4.48000002  51.59000015
C     7.49000025   4.09999990  50.24000168
C     8.45000076   4.07000017  49.26000214
C     9.76000023   4.48000002  49.65999985
C    13.78999901   5.50000000  50.31999969
C    14.51000023   5.29999971  49.12000275
C    15.88000107   5.51999998  48.97999573
C     6.05999994   3.78999996  49.86999893
H     5.59639263   4.65302277  49.39212799
H    10.53999996   3.94000006  47.70999908
H    11.59000015   5.84999990  52.18999863
H     9.22999954   5.19999981  52.95000076
H     6.90999985   4.69999981  52.29000092
H     8.28999996   3.65999985  48.26000214
H    16.42000008   5.33999968  48.06000137
H     5.45000029   3.42000008  50.70999908
H     6.00000000   2.96000004  49.15000153
