96

S    18.22999954   6.07999992  58.77999878
C    20.89999962   6.30000019  58.02000046
C    19.62000084   5.92000008  57.69000244
C    19.23999977   5.52999973  56.37000275
C    20.20000076   5.60999966  55.38000107
C    21.52000046   6.02999973  55.65999985
C    22.59000015   6.12999964  54.72000122
C    23.80000114   6.70000029  55.02999878
C    24.13000107   7.00999975  56.38000107
C    23.21000099   6.76999998  57.36999893
C    21.90000153   6.32000017  57.02000046
C    17.79000092   5.46999979  56.26999664
C    17.09000015   5.79999971  57.44999695
C    15.71000004   6.01000023  57.50000000
C    25.45999908   7.62000036  56.77000046
H    25.97276688   6.93631172  57.44656372
H    21.21999931   6.69000053  58.99000168
H    19.86999893   5.51999998  54.34999847
H    22.39000130   5.68000031  53.74000168
H    24.59000015   6.72999954  54.29000092
H    23.47999954   7.03000021  58.39000320
H    15.22999954   6.26999950  58.43000031
H    26.11000061   7.69000006  55.90000153
H    25.34000015   8.60000038  57.25000000
S    14.63999939   4.55999994  53.95999908
C    12.02000046   4.26999998  54.68999863
C    13.22000027   4.86999989  54.99000168
C    13.53999996   5.46999979  56.25000000
C    12.56000042   5.51000023  57.22000122
C    11.26000023   5.05999994  56.90999985
C    10.21999931   5.18000031  57.87000275
C     8.97000027   4.73000002  57.50999832
C     8.67000008   4.11999989  56.25999832
C     9.68999958   3.89999986  55.37000275
C    10.97000027   4.48000002  55.61999893
C    14.98999977   5.63000011  56.36000061
C    15.70000076   5.26000023  55.20000076
C    17.09000015   5.26000023  55.06999969
C     7.30999994   3.53999996  55.94999695
H     6.61033344   4.22538757  55.47165680
H    11.85999966   3.63000011  53.82999802
H    12.86000061   5.75000000  58.23999786
H    10.39999962   5.78000021  58.75999832
H     8.15999985   5.05000019  58.15999985
H     9.53999996   3.40999985  54.40999985
H    17.69000053   4.82999992  54.27999878
H     6.84999990   3.15000010  56.86999893
H     7.42999983   2.64999986  55.33000183
S    18.35000038   6.98999977  52.63000107
C    21.01000023   7.25000000  51.84999847
C    19.73999977   6.80999994  51.53999710
C    19.32999992   6.28000021  50.27999878
C    20.34000015   6.12999964  49.36000061
C    21.67000008   6.60000038  49.52999878
C    22.70000076   6.57000017  48.54999924
C    23.92000008   7.16000032  48.79000092
C    24.28999901   7.64999962  50.06999969
C    23.28000069   7.71000004  51.00000000
C    21.97999954   7.17000008  50.81999969
C    17.92000008   5.93999958  50.14999771
C    17.28999901   6.34999990  51.36000061
C    15.90999985   6.28999996  51.50000000
C    25.73999786   7.95000029  50.35999680
H    26.20168114   7.34626102  51.14130783
H    21.21999931   7.92999983  52.67000198
H    20.00000000   5.66999960  48.43999863
H    22.50999832   5.96000004  47.67000198
H    24.63999939   7.04999971  47.97999954
H    23.52999878   8.11999989  51.97999954
H    15.44000053   6.61000013  52.43000031
H    26.24000168   7.73000002  49.40999985
H    25.81999969   9.02999973  50.52999878
S    14.60000038   4.94000006  48.04000092
C    11.87000084   4.90000010  48.92000198
C    13.21000004   5.09999990  49.13999939
C    13.68000031   5.56999969  50.40999985
C    12.74000072   5.88000011  51.38000107
C    11.36999989   5.55999994  51.23000336
C    10.39999962   5.68000031  52.25999832
C     9.11000061   5.23000002  52.14000320
C     8.67000008   4.81999969  50.84999847
C     9.55000019   4.76000023  49.79000092
C    10.93000031   5.05999994  49.95999908
C    15.11999989   5.78000021  50.45999908
C    15.77999973   5.42999983  49.26000214
C    17.15999985   5.46000004  49.08000183
C     7.27999973   4.30999994  50.54999924
H     6.85167837   4.63124132  49.60055542
H    11.38000011   4.53000021  48.02000046
H    13.03999996   6.38000011  52.29999924
H    10.75000000   5.97000027  53.25000000
H     8.56999969   5.05999994  53.06999969
H     9.13000011   4.42999983  48.83999634
H    17.56000137   5.23999977  48.09000015
H     6.51000023   4.56999969  51.29000092
H     7.44999981   3.23000002  50.51000214
