96

S    18.48999977   6.56000042  58.72000122
C    21.18999863   6.84999990  58.01000214
C    19.92000008   6.44000006  57.68000031
C    19.63000107   5.92999983  56.37000275
C    20.65000153   5.86000013  55.43000031
C    21.98999786   6.15000010  55.77999878
C    23.09000015   6.03999996  54.86999893
C    24.34000015   6.48999977  55.21999741
C    24.57999992   7.07000017  56.49000168
C    23.57000160   7.11000013  57.42000198
C    22.26000023   6.65999985  57.09999847
C    18.20000076   5.68000031  56.22000122
C    17.46000099   6.06999969  57.36000061
C    16.07999992   6.17000008  57.38999939
C    25.98999977   7.50000000  56.84999847
H    26.40358353   6.79405689  57.57020187
H    21.47999954   7.36999989  58.92000198
H    20.43000031   5.38999987  54.47999954
H    22.93000031   5.63000011  53.88000107
H    25.09000015   6.50000000  54.43000031
H    23.84000015   7.53999996  58.37999725
H    15.52999973   6.34000015  58.30999756
H    26.63000107   7.51999950  55.96000290
H    25.92000008   8.53999996  57.18999863
S    15.13000011   4.76999998  53.75999832
C    12.38000011   4.71000004  54.33000183
C    13.63999939   5.14999962  54.65000153
C    13.94000053   5.60999966  55.97000122
C    12.90999985   5.69999981  56.88000107
C    11.59000015   5.38999987  56.49000168
C    10.47999954   5.53999996  57.36000061
C     9.23999977   5.01999950  57.06999969
C     9.02999973   4.32999992  55.84000015
C    10.00000000   4.33999968  54.86000061
C    11.26000023   4.92999983  55.15999603
C    15.36000061   5.82000017  56.24000168
C    16.10000038   5.26999998  55.15999603
C    17.48999977   5.26999998  55.08999634
C     7.68000031   3.70000005  55.61999893
H     6.99944210   4.35929060  55.08122635
H    12.17000008   4.15000010  53.41999817
H    13.15000057   5.93999958  57.91999817
H    10.53999996   5.86999989  58.40000153
H     8.38000011   5.22000027  57.70999908
H     9.77999973   3.76999998  53.95999908
H    18.06999969   4.85000038  54.27000046
H     7.23999977   3.44000006  56.59000015
H     7.88999987   2.79999995  55.02999878
S    14.96000099   2.51999998  50.79000092
C    12.30999947   1.87000012  51.38000107
C    13.63000011   1.88999999  51.77000046
C    14.04999924   1.38000000  53.04000092
C    13.15000057   0.88000000  53.95999908
C    11.79999924   0.71999997  53.55999756
C    10.80000019   0.17999999  54.41999817
C     9.47000027   0.39999998  54.15000153
C     9.06000042   1.00999999  52.94000244
C    10.01000023   1.29999995  51.98999786
C    11.40999985   1.24000001  52.27000427
C    15.50000000   1.48000002  53.18000031
C    16.10000038   2.20000005  52.11000061
C    17.43000031   2.59999990  52.04000092
C     7.59000015   1.33000004  52.81000137
H     7.06212234   0.73078769  52.06811905
H    12.02999973   2.46000004  50.51000214
H    13.61999989   0.69000000  54.92000198
H    11.06999969  -0.22000000  55.40000153
H     8.73000050   0.34000003  54.93999863
H     9.65999985   1.75999999  51.06999969
H    17.86000061   3.08999991  51.17000198
H     7.07999992   1.23000002  53.77999878
H     7.46000004   2.40999985  52.64999771
S    18.84000015   1.13999999  55.45000076
C    21.47000122   1.82999992  54.85000229
C    20.13000107   1.92000008  54.52000046
C    19.67000008   2.53999996  53.31999969
C    20.61000061   3.05000019  52.43999863
C    21.97999954   2.87999988  52.71999741
C    22.96999931   3.33999991  51.81000137
C    24.30999947   3.37000012  52.15000153
C    24.75000000   2.92000008  53.41999817
C    23.82999802   2.43000007  54.31000137
C    22.46000099   2.28999996  53.95000076
C    18.25000000   2.25999999  53.11999893
C    17.64999962   1.58999991  54.22000122
C    16.34000015   1.13000000  54.23999786
C    26.25000000   2.72000027  53.55999756
H    26.55532455   2.86201143  54.59667969
H    21.80999947   1.43999994  55.79999924
H    20.30999947   3.35999990  51.44000244
H    22.57999802   3.55999994  50.81999969
H    25.00000000   3.60000014  51.35000229
H    24.10000038   1.97000003  55.26000214
H    15.97000027   0.54000002  55.07999802
H    26.84000015   3.28999996  52.84000015
H    26.44000053   1.66999996  53.33000183
