96

S    17.38999939   6.50000000  58.47999954
C    20.10000038   6.43000031  57.85999680
C    18.81999969   6.03999996  57.54000092
C    18.44000053   5.42000008  56.31000137
C    19.43000031   5.19000006  55.37000275
C    20.78000069   5.46999979  55.68000031
C    21.83000183   5.22000027  54.75000000
C    23.05999947   5.82000017  54.89999771
C    23.42000008   6.46000004  56.11999893
C    22.44999886   6.60000038  57.08000183
C    21.09000015   6.23000050  56.86000061
C    16.98999977   5.31000042  56.18000031
C    16.27000046   5.78999996  57.29999924
C    14.88999939   5.93999958  57.29000092
C    24.87999916   6.70000029  56.42000198
H    25.29854202   6.04735708  57.18614578
H    20.36000061   6.80999994  58.83999634
H    19.11999893   4.67000008  54.45999908
H    21.56999969   4.80999994  53.77999878
H    23.75999832   5.64000034  54.09999847
H    22.79999924   6.83000040  58.09000015
H    14.37999916   6.38000011  58.15000153
H    25.43999863   6.78999996  55.47999954
H    24.96000099   7.73000002  56.79000092
S    13.75000000   4.21000004  53.93000031
C    11.06999969   4.15999985  54.68999863
C    12.35000038   4.57999992  54.94999695
C    12.71999931   5.19000006  56.18999863
C    11.72999954   5.46000004  57.11000061
C    10.43000031   4.94000006  56.93999863
C     9.40999985   5.12000036  57.90999985
C     8.14000034   4.67999983  57.61000061
C     7.81000042   3.96000004  56.43000031
C     8.80999947   3.71000004  55.52999878
C    10.14000034   4.17000008  55.76000214
C    14.14999962   5.45000029  56.20999908
C    14.86999989   4.97000027  55.07999802
C    16.26000023   5.00000000  55.04000092
C     6.37000036   3.60000014  56.13999939
H     5.97077322   4.28438854  55.39144897
H    10.85999966   3.73000002  53.70999908
H    11.89000034   6.15000010  57.94000244
H     9.68000031   5.52999973  58.88000107
H     7.32999992   4.75000000  58.33000183
H     8.64000034   3.33999991  54.52000046
H    16.75000000   4.78999996  54.09000015
H     5.73999977   3.77999997  57.02000046
H     6.21000004   2.52999997  55.94999695
S    17.76000023   6.80999994  52.77999878
C    20.45999908   7.00999975  52.02000046
C    19.17000008   6.63999987  51.72000122
C    18.81000137   6.05999994  50.45999908
C    19.85999870   5.84999990  49.58000183
C    21.19999886   6.24000025  49.84000397
C    22.22999954   6.26999950  48.86000061
C    23.47999954   6.76999998  49.10999680
C    23.82999802   7.16000032  50.43000031
C    22.86999893   7.23000002  51.40999603
C    21.53000069   6.84999990  51.10000229
C    17.36999893   5.91000032  50.27999878
C    16.69000053   6.28000021  51.46999741
C    15.31000042   6.15000010  51.53999710
C    25.29000092   7.46000004  50.72000122
H    25.65269852   6.96928883  51.62319183
H    20.76999855   7.48000050  52.94000244
H    19.61000061   5.46000004  48.60000229
H    21.91999817   5.82000017  47.91999817
H    24.23000145   6.74000025  48.31999969
H    23.02000046   7.50000000  52.44999695
H    14.80000019   6.30000019  52.48000336
H    25.98999977   7.17000008  49.93000031
H    25.31999969   8.55000019  50.86000061
S    14.23999977   4.65000010  48.02000046
C    11.56000042   4.42999983  48.75000000
C    12.79999924   4.92999983  49.02000046
C    13.15000057   5.42999983  50.31999969
C    12.13999939   5.75999975  51.20999908
C    10.80999947   5.36000013  50.96000290
C     9.72999954   5.44000053  51.88000107
C     8.40999985   5.18000031  51.62000275
C     8.21000004   4.44999981  50.40999985
C     9.25000000   4.13000011  49.55999756
C    10.54999924   4.67000008  49.72000122
C    14.57999992   5.64000034  50.45999908
C    15.31000042   5.26999998  49.29999924
C    16.69000053   5.38999987  49.18000031
C     6.80000019   4.02999973  50.06000137
H     6.33052588   4.77689075  49.41980743
H    11.30000019   3.76999998  47.91999817
H    12.42000008   6.25999975  52.14000320
H    10.03000069   5.84999990  52.84000015
H     7.60999966   5.26000023  52.36000061
H     9.15999985   3.47000003  48.69999695
H    17.31999969   4.86999989  48.46000290
H     6.25000000   3.93000007  51.00999832
H     6.80999994   3.00000000  49.69999695
