96

S    18.13999939   6.60000038  58.61000061
C    20.79000092   6.86999989  57.77999878
C    19.51000023   6.44999981  57.50000000
C    19.07999992   5.77000046  56.31999969
C    20.05000114   5.52999973  55.37000275
C    21.40000153   5.86000013  55.59000015
C    22.43999863   5.55999994  54.65999985
C    23.75000000   5.88000011  54.91000366
C    24.07999992   6.58999968  56.09000397
C    23.09000015   7.03999996  56.93999863
C    21.75000000   6.60000038  56.77999878
C    17.65999985   5.45000029  56.24000168
C    17.01000023   5.91000032  57.42000198
C    15.62999916   6.03999996  57.54000092
C    25.51000214   7.07000017  56.18000031
H    25.90821648   6.97044659  57.18975830
H    21.17000198   7.44999981  58.61999893
H    19.77000046   5.13999987  54.38999939
H    22.13000107   4.94000006  53.81999969
H    24.48999786   5.71000004  54.13000107
H    23.26999855   7.57999992  57.85999680
H    15.11999989   6.39999962  58.43000031
H    26.14000130   6.63000011  55.40000153
H    25.50000000   8.14000034  55.93000031
S    14.37000084   4.50000000  54.03999710
C    11.80999947   4.07000017  55.10000229
C    13.07000065   4.59000015  55.25000000
C    13.47000027   5.23000002  56.46999741
C    12.48999977   5.51999998  57.39999771
C    11.18000031   4.98000002  57.29000092
C    10.14999962   5.05999994  58.27000046
C     8.88000011   4.59999990  58.02999878
C     8.52999973   3.98999977  56.79999924
C     9.51000023   3.74000025  55.86999893
C    10.80999947   4.28000021  56.09000397
C    14.88999939   5.53999996  56.46999741
C    15.50000000   5.13000011  55.25000000
C    16.88999939   5.03000021  55.14999771
C     7.16000032   3.35999990  56.62000275
H     6.61140299   3.92284608  55.86479187
H    11.59000015   3.68999982  54.10999680
H    12.76000023   6.14000034  58.25000000
H    10.46000004   5.51000023  59.20999908
H     8.10000038   4.75000000  58.76999664
H     9.31999969   3.02999997  55.06999969
H    17.35000038   4.90999985  54.18000031
H     6.61000013   3.30000019  57.56999969
H     7.39000034   2.36000013  56.22000122
S    18.29000092   7.00000000  52.77000046
C    20.96999931   7.17999983  51.98999786
C    19.69000053   6.76000023  51.70999908
C    19.27000046   6.17999983  50.47000122
C    20.23999977   6.12999964  49.48999786
C    21.56999969   6.54999971  49.69999695
C    22.56999969   6.34000015  48.69999695
C    23.84000015   6.85999966  48.83999634
C    24.11999893   7.62000036  50.00000000
C    23.22000122   7.75000000  51.03000259
C    21.93000031   7.14999962  50.94999695
C    17.82999992   6.00000000  50.34999847
C    17.15999985   6.43000031  51.52000046
C    15.77999973   6.38000011  51.68000031
C    25.45000076   8.26000023  50.34000015
H    26.04055214   7.63387346  51.00881577
H    21.18999863   7.53000021  53.00000000
H    19.93999863   5.82999992  48.48999786
H    22.34000015   5.84000015  47.77000046
H    24.56999969   6.58999968  48.08000183
H    23.52999878   8.18000031  51.98999786
H    15.24000072   6.69000053  52.56999969
H    25.86999893   8.53999996  49.36999893
H    25.22000122   9.15000057  50.91999817
S    14.55999947   5.05999994  48.15000153
C    11.89000034   4.81999969  48.95000076
C    13.15999985   5.27999973  49.22000122
C    13.57999992   5.78000021  50.50000000
C    12.60000038   5.98999977  51.45999908
C    11.28000069   5.51000023  51.27999878
C    10.42000008   5.45000029  52.41000366
C     9.19999981   4.84000015  52.22999954
C     8.78999996   4.38000011  50.94999695
C     9.68000031   4.28999996  49.91000366
C    10.95999908   4.90000010  50.01999664
C    15.01999950   5.91000032  50.59999847
C    15.71000004   5.46000004  49.43999863
C    17.07999992   5.58000040  49.23999786
C     7.42999983   3.75999975  50.70000076
H     6.66501951   4.39040041  50.24668121
H    11.56000042   4.30999994  48.04999924
H    12.89999962   6.32999992  52.44999695
H    10.71000004   5.80999947  53.39000320
H     8.53999996   4.61000013  53.06000137
H     9.44000053   3.79999995  48.96999741
H    17.53000069   5.23000002  48.30999756
H     7.18999958   3.28000021  51.65999985
H     7.60999966   2.89000010  50.05000305
