96

S    17.75000000   6.21000004  58.92000198
C    20.40999985   6.60000038  58.13000107
C    19.13999939   6.19000006  57.81000137
C    18.84000015   5.77000046  56.47999573
C    19.88000107   5.72000027  55.56999969
C    21.19999886   6.17999983  55.79999924
C    22.19000053   6.19999981  54.78000259
C    23.48999977   6.44999981  55.14999771
C    23.81000137   6.77999973  56.50000000
C    22.81999969   6.88000011  57.43999863
C    21.45999908   6.54999971  57.16999817
C    17.40999985   5.51000023  56.36000061
C    16.72000122   5.98999977  57.50000000
C    15.32999992   5.92999983  57.54000092
C    25.17999840   7.32999992  56.81999969
H    25.69722176   6.74192476  57.57812119
H    20.61000061   7.00000000  59.12000275
H    19.67000008   5.49000025  54.52999878
H    21.96000099   5.80999947  53.80000305
H    24.27000046   6.48999977  54.40000153
H    23.06999969   7.17999983  58.44999695
H    14.82999992   6.05999994  58.50000000
H    25.75000000   7.31999969  55.87999725
H    25.02000046   8.36999989  57.09999847
S    14.23999977   4.44999981  53.99000168
C    11.64999962   3.84000015  54.93999863
C    12.89000034   4.39000034  55.14999771
C    13.21000004   5.12000036  56.33999634
C    12.22000027   5.32000017  57.29000092
C    10.90999985   4.82999992  57.05999756
C     9.84000015   5.09000015  57.97000122
C     8.61999989   4.48999977  57.75000000
C     8.31999969   3.70000005  56.60999680
C     9.32999992   3.47000003  55.70999908
C    10.64000034   4.00999975  55.91999817
C    14.61999989   5.45000029  56.43000031
C    15.31999969   5.03999996  55.27000046
C    16.70999908   5.05999994  55.22999573
C     6.93000031   3.15000010  56.36000061
H     6.38729763   3.57844973  55.51738358
H    11.50000000   3.33999991  53.97999573
H    12.43000031   5.92999983  58.15999985
H    10.00000000   5.49000025  58.96999741
H     7.85000038   4.56999969  58.50000000
H     9.04999924   2.89999986  54.82999802
H    17.20000076   4.80999994  54.29999924
H     6.34000015   3.45999980  57.22999954
H     6.98999977   2.04999995  56.29000092
S    13.96999931   2.28999996  50.93999863
C    11.42000008   1.52999997  51.69000244
C    12.76000023   1.50999999  51.97999954
C    13.30999947   1.02999997  53.20999908
C    12.43999958   0.46000001  54.13000107
C    11.05999947   0.41000003  53.86000061
C    10.11999989  -0.06000000  54.81999969
C     8.76000023   0.03000000  54.62999725
C     8.23000050   0.48000002  53.39000320
C     9.13999939   0.83999997  52.43000031
C    10.54999924   0.87000000  52.60000229
C    14.70999908   1.36000013  53.39000320
C    15.17000008   2.01999998  52.22000122
C    16.51000023   2.36000013  52.09000015
C     6.74000025   0.51999998  53.13999939
H     6.46983433  -0.29760534  52.47169495
H    10.90000057   2.22000003  51.02000427
H    12.84999943   0.12000000  55.07999802
H    10.47000027  -0.27000001  55.83000183
H     8.14000034  -0.23000000  55.48999786
H     8.67999935   1.18000007  51.50000000
H    16.84000015   2.76999998  51.13999939
H     6.17000008   0.28000000  54.03999710
H     6.46000004   1.51999998  52.77000046
S    18.12000084   1.22000003  55.52000046
C    20.71000099   1.94000006  54.71000290
C    19.36000061   1.89999998  54.45000076
C    18.77000046   2.50999975  53.29000092
C    19.55000114   3.21000004  52.38999939
C    20.94000053   3.30000019  52.63999939
C    21.80999947   4.01999998  51.77000046
C    23.18000031   4.07000017  51.88000107
C    23.74000168   3.28000021  52.91999817
C    22.93999863   2.51999998  53.75000000
C    21.52000046   2.61999989  53.76999664
C    17.36999893   2.15000010  53.18000031
C    16.84000015   1.51999998  54.33000183
C    15.53999996   1.03999996  54.47000122
C    25.23999977   3.32999992  53.09000015
H    25.56731987   3.11652970  54.10754395
H    21.25000000   1.38000000  55.47000122
H    19.19000053   3.65999985  51.46999741
H    21.35000038   4.39000034  50.84999847
H    23.78999901   4.69999981  51.23000336
H    23.45999908   1.90999997  54.48999786
H    15.24000072   0.39999998  55.30000305
H    25.62000084   4.28999996  52.72999573
H    25.72999954   2.56000018  52.48000336
