96

S    18.12000084   6.25999975  58.85000229
C    20.71000099   6.63999987  57.94000244
C    19.48999977   6.03999996  57.74000168
C    19.14999962   5.25000000  56.59000015
C    20.15999985   5.13999987  55.65000153
C    21.40999985   5.79999971  55.73999786
C    22.46000099   5.65000010  54.79000092
C    23.69999886   6.14000034  55.10000229
C    24.05999947   6.63000011  56.38999939
C    23.03999901   6.96000004  57.23999786
C    21.70999908   6.51999998  56.95000076
C    17.71000099   5.07999992  56.49000168
C    17.02999878   5.56999969  57.63000107
C    15.67000008   5.82999992  57.77999878
C    25.48999977   6.96000004  56.77999878
H    25.79578590   6.59732485  57.76135635
H    21.04999924   7.30999994  58.72000122
H    19.85000038   4.48000002  54.84000397
H    22.32000160   5.13000011  53.83999634
H    24.54999924   6.03999996  54.43000031
H    23.28000069   7.26999998  58.25000000
H    15.25000000   6.05000019  58.75999832
H    26.28999901   6.63999987  56.09000397
H    25.62000084   8.01999950  56.98999786
S    14.42999935   4.75000000  54.12000275
C    11.73999977   4.76000023  54.92000198
C    13.05999947   5.05999994  55.20000076
C    13.50999928   5.53999996  56.46999741
C    12.51999950   5.82000017  57.38999939
C    11.18999958   5.38999987  57.18000031
C    10.25000000   5.33999968  58.25000000
C     9.00000000   4.77999973  58.08000183
C     8.59000015   4.15000010  56.88000107
C     9.48999977   4.21000004  55.84000015
C    10.72999954   4.88999987  55.90999985
C    14.96000099   5.56999969  56.60999680
C    15.59000015   5.12000036  55.41999817
C    16.95999908   4.88000011  55.31999969
C     7.17999983   3.61999989  56.77000046
H     6.66962528   4.22252560  56.01861572
H    11.44000053   4.19000006  54.05000305
H    12.75000000   6.19999981  58.37999725
H    10.50000000   5.75999975  59.22000122
H     8.30999947   4.69000006  58.92000198
H     9.27999973   3.72000003  54.88999939
H    17.43999863   4.55000019  54.40999985
H     6.61999989   3.54999995  57.70999908
H     7.34000015   2.63000011  56.32999802
S    18.39999962   6.61000013  52.65999603
C    20.97999954   7.07000017  51.77999878
C    19.77000046   6.46000004  51.55000305
C    19.38999939   5.78000021  50.34000015
C    20.31999969   5.78999996  49.31999969
C    21.59000015   6.38999987  49.48999786
C    22.56999969   6.48000002  48.46000290
C    23.87000084   6.80999994  48.73000336
C    24.17000008   7.42000008  49.98000336
C    23.22999954   7.57000017  50.97000122
C    21.96000099   6.94000006  50.77000046
C    17.94999886   5.63000011  50.21999741
C    17.28999901   6.06999969  51.38999939
C    15.90999985   6.26999950  51.39999771
C    25.59000015   7.83999968  50.26000214
H    26.05004692   7.25963449  51.05977249
H    21.05999947   7.63999987  52.70000076
H    20.10999870   5.42999983  48.30999756
H    22.21999931   5.92999983  47.58999634
H    24.63000107   6.52999973  48.00000000
H    23.40999985   8.01999950  51.93999863
H    15.53999996   6.71999979  52.31999969
H    26.25999832   7.69000006  49.40000153
H    25.66999817   8.88000011  50.59000015
S    14.68000031   4.75000000  48.00000000
C    11.97999954   4.76000023  48.85000229
C    13.30000019   5.09999990  49.06000137
C    13.68000031   5.65999985  50.31000137
C    12.76999950   6.02999973  51.29000092
C    11.40999985   5.73000002  51.03000259
C    10.39000034   6.01000023  51.98999786
C     9.11000061   5.51000023  51.90000153
C     8.75000000   4.69999981  50.79000092
C     9.68000031   4.51000023  49.79999924
C    11.00999928   5.00000000  49.86000061
C    15.13000011   5.78000021  50.34999847
C    15.84000015   5.35000038  49.20000076
C    17.21999931   5.26000023  49.08000183
C     7.30999994   4.30999994  50.56000137
H     6.86364841   4.84845591  49.72397614
H    11.79999924   4.11999989  48.00000000
H    13.00000000   6.35999966  52.29999924
H    10.65000057   6.48000002  52.93000031
H     8.36000061   5.66999960  52.67000198
H     9.47000027   4.09000015  48.81999969
H    17.72999954   5.00999975  48.15000153
H     6.61000013   4.30000019  51.39999771
H     7.27999973   3.25000000  50.27000046
