96

S    17.48999977   6.51999998  58.68000031
C    20.20999908   6.58999968  57.97999954
C    18.95000076   6.11999989  57.74000168
C    18.60999870   5.46999979  56.51000214
C    19.63000107   5.13999987  55.61999893
C    20.95000076   5.56999969  55.87999725
C    21.90999985   5.35000038  54.85000229
C    23.19999886   5.65000010  55.20000076
C    23.55999947   6.39999962  56.35000229
C    22.60999870   6.69000053  57.29999924
C    21.28000069   6.23000050  57.11999893
C    17.18000031   5.38999987  56.27999878
C    16.45000076   5.93999958  57.36000061
C    15.06000042   5.96000004  57.47000122
C    24.90999985   7.07999992  56.51000214
H    25.57857513   6.54656219  57.18568802
H    20.36000061   7.17000008  58.88999939
H    19.40999985   4.56999969  54.72999954
H    21.61999893   4.88000011  53.90999603
H    24.04000092   5.52999973  54.52000046
H    22.86000061   7.26999998  58.18999863
H    14.55999947   6.40999985  58.31999969
H    25.38999939   7.03000021  55.52999878
H    24.86000061   8.10000038  56.90999985
S    13.94999981   4.11999989  54.12000275
C    11.31000042   3.86999989  54.97000122
C    12.55000019   4.44000006  55.15999603
C    12.89000034   5.09000015  56.39999771
C    11.87000084   5.25000000  57.30999756
C    10.55999947   4.72000027  57.15000153
C     9.48999977   4.86000013  58.06999969
C     8.21000004   4.44999981  57.77000046
C     7.97999954   3.65999985  56.62000275
C     9.01000023   3.40999985  55.73999786
C    10.31000042   3.93000007  55.97000122
C    14.30999947   5.38000011  56.44000244
C    15.03000069   4.82999992  55.34000015
C    16.40999985   4.86999989  55.21999741
C     6.58999968   3.14000010  56.31000137
H     6.03196096   3.86974287  55.72334290
H    11.19999981   3.31999993  54.03999710
H    12.10000038   5.75000000  58.25000000
H     9.61999989   5.42000008  58.99000168
H     7.40000010   4.61000013  58.47000122
H     8.90999985   2.84999990  54.81999969
H    16.90000153   4.35999966  54.40000153
H     6.15000010   2.86999989  57.28000259
H     6.70000029   2.14000010  55.86000061
S    14.35999966   2.28999996  51.18999863
C    11.77000046   1.42000008  51.93000031
C    13.12999916   1.47000003  52.16999817
C    13.71000099   0.76999998  53.27000046
C    12.86999893   0.07000000  54.13000107
C    11.47999954   0.29999998  54.09000015
C    10.62000084  -0.17999999  55.12000275
C     9.26000023  -0.17000002  54.92000198
C     8.67000008   0.28000000  53.70999908
C     9.48999977   0.83999997  52.75000000
C    10.90000057   0.88000000  52.90999985
C    15.13000011   1.07000005  53.40999985
C    15.62999916   1.87999988  52.36000061
C    16.95999908   2.25999999  52.37999725
C     7.16000032   0.39999998  53.61999893
H     6.70193481  -0.03659368  52.73249435
H    11.39999962   1.82999992  50.98999786
H    13.35000038  -0.35999998  55.00999832
H    11.10999966  -0.79999995  55.86999893
H     8.67000008  -0.56000000  55.73999786
H     9.02999973   1.24000001  51.84999847
H    17.27000046   2.87999988  51.53999710
H     6.65999985   0.12000000  54.55999756
H     7.04999971   1.48000002  53.52000427
S    18.52000046   0.69000000  55.63999939
C    21.14999962   1.33000004  54.88999939
C    19.80999947   1.29999995  54.59000015
C    19.30999947   1.97000003  53.43000031
C    20.19000053   2.61999989  52.58999634
C    21.57999992   2.50000000  52.81000137
C    22.53999901   3.14000010  51.97999954
C    23.88999939   3.01999998  52.19999695
C    24.40000153   2.33999991  53.34000015
C    23.51000023   1.65000010  54.13999939
C    22.10000038   1.77999997  53.95000076
C    17.86000061   1.85000002  53.36999893
C    17.27000046   1.16999996  54.47000122
C    15.95999908   0.69999999  54.47000122
C    25.88999939   2.21000004  53.50000000
H    26.16659355   2.30928969  54.54963684
H    21.52000046   0.92000002  55.83000183
H    19.82999992   3.19000006  51.72999954
H    22.10000038   3.82999992  51.25999832
H    24.54000092   3.44000006  51.44000244
H    23.85000038   1.00999999  54.93999863
H    15.62000084   0.05000000  55.27000046
H    26.47999954   2.86999989  52.84999847
H    25.94000053   1.19000006  53.09000015
