96

S    17.94999886   6.50000000  58.85000229
C    20.62999916   6.84999990  58.15000153
C    19.38999939   6.35999966  57.81999969
C    19.05999947   5.82000017  56.52999878
C    20.13999939   5.66999960  55.68000031
C    21.40000153   6.25000000  55.94999695
C    22.53000069   6.06999969  55.08999634
C    23.75999832   6.65000010  55.27999878
C    23.97999954   7.32999992  56.51000214
C    22.98000145   7.42999983  57.43999863
C    21.68999863   6.86999989  57.21000290
C    17.63000107   5.69000006  56.35000229
C    16.88999939   5.97000027  57.52999878
C    15.51000023   6.00000000  57.64999771
C    25.36999893   7.82000017  56.86999893
H    25.82778931   7.06893969  57.51376724
H    20.71000099   7.17000008  59.19000244
H    19.84000015   5.26000023  54.71000290
H    22.36000061   5.51999998  54.16999817
H    24.47999954   6.57999992  54.47000122
H    23.12999916   7.73999977  58.47000122
H    14.96999931   6.03999996  58.59000397
H    25.92000008   7.85000038  55.91999817
H    25.39999962   8.88000011  57.18000031
S    14.39000034   4.92000008  53.99000168
C    11.77000046   4.56999969  54.72000122
C    13.02999973   4.96000004  55.13000107
C    13.32999992   5.61999989  56.36000061
C    12.31999969   5.68000031  57.30999756
C    11.00999928   5.31000042  56.95999908
C     9.90999985   5.27999973  57.88000107
C     8.64999962   4.94000006  57.44999695
C     8.34000015   4.65000010  56.10000229
C     9.40999985   4.42999983  55.25000000
C    10.72000027   4.78999996  55.65000153
C    14.78000069   5.65000010  56.51000214
C    15.48999977   5.35000038  55.31000137
C    16.87000084   5.40999985  55.20999908
C     6.93000031   4.30999994  55.68000031
H     6.22047043   5.07629204  55.99219131
H    11.46999931   4.28999996  53.72000122
H    12.51999950   5.86999989  58.36000061
H    10.11999989   5.58000040  58.89999771
H     7.90000010   5.03999996  58.22999954
H     9.26999950   4.07999992  54.22999954
H    17.42000008   5.26999998  54.27999878
H     6.61000013   3.37000012  56.16000366
H     6.85999966   4.28999996  54.59000015
S    18.46999931   7.18999958  52.76000214
C    21.12999916   7.44999981  51.90999985
C    19.88999939   6.88000011  51.75000000
C    19.50000000   6.28999996  50.51000214
C    20.45000076   6.07999992  49.52999878
C    21.75000000   6.63999987  49.65000153
C    22.75000000   6.51999998  48.64999771
C    24.05999947   6.80999994  48.95999908
C    24.36000061   7.26999998  50.27000046
C    23.43000031   7.63999987  51.20999908
C    22.09000015   7.31999969  50.86999893
C    18.04999924   6.23000050  50.34999847
C    17.32999992   6.65000010  51.50000000
C    15.95000076   6.71000004  51.51000214
C    25.76999855   7.59999990  50.70999908
H    26.23109627   6.77711964  51.25621796
H    21.47999954   7.88000011  52.84999847
H    20.07999802   5.73999977  48.55999756
H    22.53000069   6.14000034  47.65999603
H    24.84000015   6.76999998  48.20999908
H    23.74000168   7.92000008  52.22000122
H    15.51000023   7.11999989  52.42000198
H    26.37000084   8.00000000  49.87999725
H    25.66999817   8.43000031  51.42000198
S    14.80000019   5.14999962  48.04999924
C    12.09000015   5.05000019  48.75000000
C    13.38000107   5.35000038  49.09999847
C    13.75000000   6.01000023  50.31999969
C    12.75000000   6.25999975  51.25000000
C    11.42000008   5.86999989  50.96000290
C    10.39999962   6.17000008  51.90999985
C     9.13000011   5.69999981  51.70999908
C     8.76999950   5.05000019  50.50000000
C     9.71000004   4.88000011  49.50000000
C    11.05999947   5.23999977  49.71000290
C    15.18000031   6.21999979  50.45000076
C    15.90000057   5.69999981  49.34000015
C    17.28000069   5.77000046  49.27999878
C     7.34000015   4.59000015  50.31999969
H     6.82654285   5.06780100  49.48563385
H    11.84999943   4.56999969  47.80000305
H    12.92000008   6.52999973  52.28000259
H    10.60999966   6.86999989  52.70999908
H     8.38000011   6.00000000  52.43999863
H     9.48999977   4.34999990  48.56999969
H    17.72999954   5.19000006  48.47999954
H     6.85999966   4.75000000  51.29000092
H     7.30999994   3.50000000  50.24000168
