96

S    17.90999985   6.50000000  58.85000229
C    20.52999878   6.86999989  57.84999847
C    19.23999977   6.43000031  57.68000031
C    18.90999985   5.75999975  56.45000076
C    19.88000107   5.51000023  55.50000000
C    21.22999954   5.86999989  55.70999908
C    22.19000053   5.66999960  54.68000031
C    23.44000053   6.24000025  54.80999756
C    23.78999901   6.94999981  55.98999786
C    22.89999962   7.04999971  57.02999878
C    21.55999947   6.56000042  56.91999817
C    17.47999954   5.47999954  56.45999908
C    16.79000092   5.82000017  57.64999771
C    15.39999962   5.84999990  57.70000076
C    25.17999840   7.49000025  56.25000000
H    25.70507240   6.92944956  57.02342224
H    20.85000038   7.44999981  58.70999908
H    19.52999878   5.13000011  54.54999924
H    21.90999985   5.01999950  53.86000061
H    24.20999908   6.07999992  54.06000137
H    23.12999916   7.60999966  57.93000031
H    14.94999981   6.19999981  58.61999893
H    25.69999886   7.44999981  55.28999710
H    25.10000038   8.56999969  56.40999603
S    14.42000008   4.19000006  54.15000153
C    11.71000004   4.07999992  54.91000366
C    12.98999977   4.55999994  55.13000107
C    13.25000000   5.23999977  56.36000061
C    12.20000076   5.55999994  57.18999863
C    10.88000107   5.21000004  56.84999847
C     9.71000004   5.46999979  57.62000275
C     8.43999958   4.97000027  57.41000366
C     8.23999977   4.09000015  56.31999969
C     9.30999947   3.77999997  55.51000214
C    10.57999992   4.38000011  55.70000076
C    14.68999958   5.36000013  56.59999847
C    15.39999962   4.80999994  55.50000000
C    16.77999878   4.94000006  55.37000275
C     6.89000034   3.45999980  56.06999969
H     6.39895582   4.00797653  55.26582336
H    11.51999950   3.31999993  54.15000153
H    12.48999977   6.02999973  58.13000107
H     9.82999992   5.97000027  58.56999969
H     7.67000008   5.07000017  58.16999817
H     9.13999939   3.14000010  54.65000153
H    17.26000023   4.76000023  54.41999817
H     6.25000000   3.44000006  56.95999908
H     6.86999989   2.42000008  55.70999908
S    18.29000092   6.84000015  52.64999771
C    20.86999893   7.00999975  51.72999954
C    19.57999992   6.65000010  51.45000076
C    19.13999939   6.02999973  50.22999573
C    20.09000015   5.86999989  49.22999954
C    21.40999985   6.34000015  49.38999939
C    22.43000031   6.15999985  48.40999985
C    23.72999954   6.53999996  48.64999771
C    24.04999924   7.13999987  49.89999771
C    23.12000084   7.35000038  50.90000153
C    21.80000114   6.86999989  50.66999817
C    17.71000099   5.78999996  50.26000214
C    17.13999939   6.09000015  51.52999878
C    15.76000023   6.09000015  51.69000244
C    25.45999908   7.62000036  50.13000107
H    26.09806252   7.03156328  50.78932953
H    21.14999962   7.37999964  52.71999741
H    19.86999893   5.29999971  48.33000183
H    22.20000076   5.59000015  47.51999664
H    24.46000099   6.21000004  47.91999817
H    23.36999893   7.88999987  51.81000137
H    15.22999954   6.30000019  52.61000061
H    25.97999954   7.73000002  49.16999817
H    25.40999985   8.67000008  50.43000031
S    14.34000015   4.86999989  48.18000031
C    11.71000004   4.57999992  49.15999985
C    12.98999977   5.05000019  49.31999969
C    13.47000027   5.58000040  50.56000137
C    12.51999950   5.88999987  51.51000214
C    11.17000008   5.49000025  51.38000107
C    10.19000053   5.77000046  52.36999893
C     8.88000011   5.42000008  52.15999985
C     8.47000027   4.65999985  51.02000427
C     9.42000008   4.33999968  50.06999969
C    10.77000046   4.75000000  50.20999908
C    14.92000008   5.69999981  50.63999939
C    15.52999973   5.21000004  49.45999908
C    16.90999985   5.17000008  49.29000092
C     7.03000021   4.26000023  50.79999924
H     6.57436323   4.77259159  49.95280075
H    11.36999989   4.00999975  48.29999924
H    12.79999924   6.26999950  52.49000168
H    10.55999947   6.12999964  53.33000183
H     8.11999989   5.78999996  52.84000015
H     9.07999992   3.77999997  49.20000076
H    17.43000031   4.81999969  48.40000153
H     6.56000042   4.46999979  51.77000046
H     7.00000000   3.19999981  50.52999878
