96

S    17.29999924   6.39999962  58.81000137
C    20.02000046   6.61999989  57.94000244
C    18.70000076   6.28999996  57.72999573
C    18.31999969   5.75999975  56.45999908
C    19.26000023   5.59999990  55.45999908
C    20.59000015   6.05000019  55.59000015
C    21.54999924   5.95000029  54.54999924
C    22.81999969   6.46000004  54.68000031
C    23.19000053   7.03000021  55.93000031
C    22.27999878   7.09999990  56.95999908
C    20.96999931   6.54999971  56.88999939
C    16.87999916   5.56999969  56.31000137
C    16.20000076   5.93999958  57.50000000
C    14.81999969   5.75000000  57.60000229
C    24.64999962   7.40999985  56.04999924
H    25.13234711   6.82125330  56.83026886
H    20.42000008   7.11999989  58.81000137
H    18.97999954   5.12000036  54.52000046
H    21.24000168   5.46999979  53.62999725
H    23.54999924   6.38999987  53.87000275
H    22.55000114   7.46999979  57.95000076
H    14.29999924   6.01999998  58.50999832
H    25.15000153   7.17000008  55.11000061
H    24.61999893   8.48999977  56.24000168
S    13.68000031   4.25000000  54.09999847
C    11.03000069   3.94000006  54.98000336
C    12.28999996   4.44000006  55.19000244
C    12.67000008   5.09000015  56.39999771
C    11.76000023   5.32999992  57.42000198
C    10.44999981   4.84000015  57.21000290
C     9.50000000   4.88999987  58.27000046
C     8.22000027   4.44000006  58.04999924
C     7.79999971   3.72000003  56.90000153
C     8.76999950   3.55999994  55.93999863
C    10.06999969   4.11999989  56.02000427
C    14.11999893   5.25000000  56.49000168
C    14.80999947   4.92999983  55.28999710
C    16.18999863   5.05999994  55.20999908
C     6.44999981   3.02999997  56.88000107
H     5.80049133   3.49393463  56.13770676
H    10.72999954   3.38000011  54.09999847
H    12.10999966   5.58000040  58.40999985
H     9.89000034   5.36999989  59.15999985
H     7.50999975   4.38000011  58.87000275
H     8.64000034   2.93000007  55.06999969
H    16.80999947   4.67000008  54.40999985
H     5.92000008   3.17999983  57.83000183
H     6.56000042   1.94999993  56.72000122
S    13.63999939   2.50000000  51.11999893
C    11.10999966   1.65999997  51.88000107
C    12.46000099   1.65000010  52.14000320
C    13.07999992   0.92000002  53.20000076
C    12.30000019   0.28000000  54.13999939
C    10.90000057   0.28999999  53.94000244
C    10.01000023  -0.34000003  54.86000061
C     8.64000034  -0.22000000  54.75000000
C     8.06999969   0.46999997  53.64999771
C     8.89999962   1.00999999  52.70000076
C    10.31000042   0.92000002  52.78999710
C    14.52000046   1.13000000  53.20999908
C    14.96000099   2.00000000  52.18999863
C    16.28000069   2.44000006  52.29000092
C     6.57999992   0.67000002  53.47999954
H     6.20365429   0.13743502  52.60659409
H    10.62000084   2.19000006  51.06999969
H    12.64999962  -0.24000001  55.02999878
H    10.46000004  -0.93999994  55.63999939
H     8.01999950  -0.62000000  55.54999924
H     8.46000004   1.58999991  51.88999939
H    16.77999878   2.94999981  51.46999741
H     6.01999998   0.31000000  54.36000061
H     6.38000011   1.74000001  53.43000031
S    17.84000015   0.63000000  55.54999924
C    20.39999962   1.34000003  54.91000366
C    19.06999969   1.48000002  54.59000015
C    18.59000015   2.14000010  53.40999985
C    19.48999977   2.70000005  52.52999878
C    20.88999939   2.61000013  52.77000046
C    21.94000053   3.17000008  52.00000000
C    23.26000023   3.16000009  52.41000366
C    23.64000130   2.39999986  53.54999924
C    22.65999985   1.76999998  54.27999878
C    21.28000069   1.94000006  53.97999573
C    17.13999939   2.00000000  53.29000092
C    16.64999962   1.18000007  54.34000015
C    15.34999943   0.71000004  54.26000214
C    25.09000015   2.49000001  53.96999741
H    25.36074638   3.47324133  54.35474777
H    20.81999969   0.82000005  55.77000046
H    19.11000061   3.08999991  51.59999847
H    21.65999985   3.81999993  51.17000198
H    23.95000076   3.86999989  51.97000122
H    22.98000145   1.19999993  55.15999603
H    14.82999992   0.02000000  54.93000031
H    25.73999786   2.21000004  53.13999939
H    25.20999908   1.72000003  54.73999786
