96

S    17.13000107   6.17000008  58.93000031
C    19.72999954   6.57000017  57.94000244
C    18.48999977   6.00000000  57.80000305
C    18.17000008   5.23999977  56.62000275
C    19.09000015   5.12000036  55.59999847
C    20.36000061   5.71000004  55.79000092
C    21.45000076   5.50000000  54.88999939
C    22.69000053   6.03999996  55.08999634
C    22.98999977   6.89000034  56.19999695
C    21.94999886   7.22000027  57.02999878
C    20.69000053   6.57999992  56.88999939
C    16.73999977   4.99000025  56.47999573
C    16.10999870   5.44000053  57.68000031
C    14.73000050   5.46000004  57.74000168
C    24.40999985   7.30999994  56.46999741
H    25.06933212   6.49469757  56.76776123
H    19.88000107   7.03999996  58.90999603
H    18.86000061   4.39000034  54.81999969
H    21.42999840   4.77999973  54.08000183
H    23.52000046   5.73999977  54.45999908
H    22.19000053   7.76999998  57.94000244
H    14.19999981   5.78000021  58.63999939
H    24.80999947   7.82000017  55.59000015
H    24.38999939   8.11999989  57.21000290
S    13.50000000   4.15999985  54.19000244
C    10.90999985   4.05999994  54.95999908
C    12.15999985   4.51999998  55.28999710
C    12.55000019   4.99000025  56.58000183
C    11.54999924   5.07000017  57.54000092
C    10.21999931   4.69000006  57.22000122
C     9.32999992   4.41000032  58.29000092
C     8.05999947   3.93000007  58.08000183
C     7.76000023   3.40000010  56.79000092
C     8.67000008   3.42000008  55.76000214
C     9.88000011   4.13999987  55.93000031
C    14.00000000   5.10999966  56.59999847
C    14.67000008   4.65999985  55.43000031
C    16.04999924   4.61999989  55.33000183
C     6.44999981   2.75000000  56.44000244
H     5.66385412   3.35908604  55.99380875
H    10.75000000   3.49000001  54.05000305
H    11.78999996   5.26999998  58.57999802
H     9.63999939   4.76999998  59.27000046
H     7.37999964   4.11000013  58.89999771
H     8.43999958   2.91000009  54.81999969
H    16.60000038   4.26000023  54.45999908
H     6.11000013   2.45000005  57.43999863
H     6.60000038   1.80000007  55.91999817
S    17.50000000   6.38999987  52.70000076
C    20.10000038   6.84999990  51.81000137
C    18.90999985   6.19999981  51.63000107
C    18.50000000   5.61999989  50.38000107
C    19.38999939   5.69999981  49.33000183
C    20.69000053   6.23000050  49.45999908
C    21.68999863   6.00000000  48.47000122
C    22.95999908   6.48999977  48.68000031
C    23.31000137   6.98999977  49.95999908
C    22.36999893   7.23000002  50.93000031
C    21.02999878   6.76999998  50.73999786
C    17.05000114   5.46000004  50.31000137
C    16.35000038   5.79999971  51.49000168
C    14.96000099   5.84000015  51.55000305
C    24.73999977   7.42000008  50.20999908
H    25.24614143   6.65722418  50.80168533
H    20.38000107   7.36999989  52.72999573
H    19.09000015   5.22000027  48.40000153
H    21.45000076   5.50000000  47.54000092
H    23.59999847   6.50000000  47.80000305
H    22.52000046   7.69999981  51.90000153
H    14.47999954   6.12999964  52.49000168
H    25.26000023   7.69000006  49.27999878
H    24.73999977   8.38000011  50.75000000
S    13.78999901   4.92000008  47.88000107
C    11.14999962   4.56999969  48.57999802
C    12.38999939   5.03999996  48.95000076
C    12.76000023   5.40000010  50.28999710
C    11.77000046   5.55000019  51.25000000
C    10.47999954   5.09999990  50.90999985
C     9.42000008   5.12000036  51.86000061
C     8.21000004   4.53999996  51.56000137
C     7.99000025   3.84000015  50.34000015
C     8.92000008   3.96000004  49.33000183
C    10.18000031   4.55999994  49.61000061
C    14.19999981   5.53999996  50.40999985
C    14.91000080   5.22000027  49.22999954
C    16.28999901   5.26000023  49.15000153
C     6.70000029   3.05999994  50.17000198
H     6.01461267   3.53834295  49.47033691
H    10.98000050   4.18000031  47.56999969
H    12.00000000   5.96000004  52.22999954
H     9.52000046   5.65000010  52.80000305
H     7.48000050   4.46999979  52.36000061
H     8.78999996   3.65000010  48.29999924
H    16.73999977   5.14999962  48.16999817
H     6.30000019   2.86999989  51.17000198
H     6.98999977   2.15000010  49.64000320
