96

S    18.06999969   6.57999992  58.61000061
C    20.79000092   6.85999966  57.84000015
C    19.50000000   6.48000002  57.56999969
C    19.11999893   5.91000032  56.31000137
C    20.10000038   5.88000011  55.34000015
C    21.42999840   6.32999992  55.54999924
C    22.43000031   6.09000015  54.56999969
C    23.74000168   6.47000027  54.75999832
C    24.02000046   7.25000000  55.90999985
C    23.11000061   7.40000010  56.93999863
C    21.77999878   6.91999960  56.81000137
C    17.69000053   5.69000006  56.13999939
C    16.98999977   6.01000023  57.32999802
C    15.59999943   6.01000023  57.41000366
C    25.45999908   7.53999996  56.25000000
H    25.94205284   6.78147840  56.86674118
H    21.02000046   7.30000019  58.80000305
H    19.77000046   5.45000029  54.38999939
H    22.21999931   5.42000008  53.75000000
H    24.51000023   6.15000010  54.06999969
H    23.52000046   7.75000000  57.88000107
H    15.08999920   6.39999962  58.29000092
H    26.05999947   7.60999966  55.34000015
H    25.52999878   8.53999996  56.69000244
S    14.52000046   4.61999989  53.85000229
C    11.80999947   4.50000000  54.45999908
C    13.07999992   4.84000015  54.86000061
C    13.43999958   5.28999996  56.17000198
C    12.39999962   5.29999971  57.08000183
C    11.10000038   4.81999969  56.77999878
C    10.03000069   4.80999994  57.72999573
C     8.73999977   4.51999998  57.36999893
C     8.47999954   4.05000019  56.05999756
C     9.44999981   4.05000019  55.08999634
C    10.77999973   4.44000006  55.43000031
C    14.85999966   5.56999969  56.30000305
C    15.57999992   5.22000027  55.13999939
C    16.97000122   5.22000027  55.02999878
C     7.03999996   3.65999985  55.77999878
H     6.48931599   4.33226299  55.12203979
H    11.59000015   4.28999996  53.41999817
H    12.60000038   5.69000006  58.08000183
H    10.26999950   5.38999987  58.61000061
H     7.97999954   4.65000010  58.13999939
H     9.19999981   3.88000011  54.03999710
H    17.53000069   4.86999989  54.16999817
H     6.54999971   3.58999991  56.76000214
H     7.07000017   2.68000007  55.27000046
S    14.56999969   2.50999975  51.05999756
C    11.92999935   1.99000001  51.73999786
C    13.26000023   1.79000008  52.02000046
C    13.80000019   1.25999999  53.23999786
C    12.89999962   0.90000004  54.22999954
C    11.51000023   0.97000003  53.95999908
C    10.57000065   0.46999997  54.91000366
C     9.22999954   0.51999998  54.59000015
C     8.73999977   0.94999999  53.33000183
C     9.64999962   1.36000013  52.37999725
C    11.03000069   1.47000003  52.70000076
C    15.22999954   1.42000008  53.44999695
C    15.76000023   2.06999993  52.29999924
C    17.06999969   2.52999997  52.27000427
C     7.27999973   1.22000003  53.04999924
H     6.90981913   0.59353977  52.23844910
H    11.69999981   2.42000008  50.77000046
H    13.17999935   0.25000000  55.05000305
H    10.90000057  -0.19000000  55.70999908
H     8.51000023   0.17000002  55.31999969
H     9.35000038   1.89999998  51.49000168
H    17.46000099   3.00999999  51.38000107
H     6.76999998   0.99000001  54.00000000
H     7.18999958   2.28999996  52.84999847
S    18.63999939   1.33000004  55.76000214
C    21.19999886   2.11999989  54.95999908
C    19.85000038   2.11999989  54.72999954
C    19.26000023   2.69000006  53.55999756
C    20.12000084   3.10999990  52.55000305
C    21.52000046   3.07000017  52.75000000
C    22.43000031   3.38999987  51.70999908
C    23.80000114   3.32999992  51.86000061
C    24.36000061   3.09999990  53.15000153
C    23.51000023   2.70000005  54.15999985
C    22.09000015   2.71000004  54.02000046
C    17.85000038   2.34999990  53.41999817
C    17.36999893   1.65999997  54.55999756
C    16.06999969   1.15999997  54.52999878
C    25.84000015   3.35999990  53.29000092
H    26.31800652   2.80351591  54.09618759
H    21.54999924   1.58000004  55.84000015
H    19.81999969   3.42999983  51.56000137
H    22.07999992   3.58000016  50.70000076
H    24.44999886   3.42000008  51.00000000
H    23.95000076   2.26999998  55.05000305
H    15.65000057   0.50999999  55.28999710
H    26.02000046   4.44000006  53.36000061
H    26.25999832   3.08999991  52.31999969
