96

S    17.43999863   6.39999962  58.86000061
C    20.06999969   6.71999979  57.88000107
C    18.73999977   6.44000006  57.65999603
C    18.29000092   6.06999969  56.35000229
C    19.15999985   6.00000000  55.27000046
C    20.52000046   6.32999992  55.45999908
C    21.45999908   6.30000019  54.38999939
C    22.72999954   6.77999973  54.61999893
C    23.11000061   7.28999996  55.89000320
C    22.22999954   7.34000015  56.95000076
C    20.90999985   6.84999990  56.75000000
C    16.87999916   5.69999981  56.31999969
C    16.28999901   5.93999958  57.58999634
C    14.92000008   5.77000046  57.70000076
C    24.51999855   7.81000042  56.03000259
H    24.96151924   7.29726648  56.88455582
H    20.55999947   6.77999973  58.85000229
H    18.73999977   5.65000010  54.33000183
H    21.30000114   5.79999971  53.43999863
H    23.46999931   6.83000040  53.82999802
H    22.60999870   7.60999966  57.93000031
H    14.42000008   6.01999998  58.62999725
H    24.86999893   7.57000017  55.01999664
H    24.54999924   8.88000011  56.25000000
S    13.60000038   4.76000023  54.08000183
C    11.03000069   4.13999987  54.95999908
C    12.30000019   4.55000019  55.27000046
C    12.71000004   5.13000011  56.52000046
C    11.76000023   5.26000023  57.51999664
C    10.44000053   4.80999994  57.28000259
C     9.42000008   4.90000010  58.26000214
C     8.14999962   4.46999979  57.93000031
C     7.82000017   3.76999998  56.72999954
C     8.80000019   3.67000008  55.77000046
C    10.10000038   4.19999981  56.02000427
C    14.14000034   5.36999989  56.59999847
C    14.75000000   5.26999998  55.33000183
C    16.13000107   5.36000013  55.19000244
C     6.48999977   3.12999988  56.42000198
H     5.97789001   3.77013755  55.70162201
H    10.67000008   3.75999975  54.01000214
H    12.00000000   5.65000010  58.50000000
H     9.63000011   5.27999973  59.26000214
H     7.39000034   4.48000002  58.68999863
H     8.65999985   3.17000008  54.80999756
H    16.54999924   5.32999992  54.19000244
H     5.91000032   3.07000017  57.36000061
H     6.75000000   2.09999990  56.16000366
S    17.75000000   6.98000002  52.50000000
C    20.36999893   7.42999983  51.50000000
C    19.11999893   6.86999989  51.37000275
C    18.73999977   6.23000050  50.14999771
C    19.63999939   6.05999994  49.10999680
C    20.96999931   6.51999998  49.27000046
C    21.96000099   6.25999975  48.29000092
C    23.23999786   6.76000023  48.40999985
C    23.65999985   7.40999985  49.59999847
C    22.69000053   7.62000036  50.56000137
C    21.34000015   7.20000029  50.48999786
C    17.35000038   5.79999971  50.13000107
C    16.68000031   6.24000025  51.30000305
C    15.29000092   6.19000006  51.42000198
C    25.07999802   7.90999985  49.75000000
H    25.66408157   7.35440874  50.48366547
H    20.65000153   8.00000000  52.36999893
H    19.23999977   5.59999990  48.20999908
H    21.50000000   5.75000000  47.43999863
H    23.95999908   6.51000023  47.63999939
H    23.02999878   8.21000004  51.39999771
H    14.85000038   6.61999989  52.31999969
H    25.53999901   8.05000019  48.76999664
H    24.96999931   8.97000027  50.00000000
S    14.04000092   4.86999989  47.88000107
C    11.33999920   4.82999992  48.61999893
C    12.64000034   5.17000008  48.93000031
C    13.09999943   5.75999975  50.14999771
C    12.10999966   6.01999998  51.07999802
C    10.84000015   5.42000008  50.96000290
C     9.98000050   5.33999968  52.09999847
C     8.69000053   4.88000011  51.97999954
C     8.22000027   4.35999966  50.75000000
C     9.04999924   4.48000002  49.65999985
C    10.39999962   4.94000006  49.68000031
C    14.53999996   5.72000027  50.34000015
C    15.21000004   5.32000017  49.15000153
C    16.59000015   5.33999968  49.05000305
C     6.77999973   3.93000007  50.52999878
H     6.30987358   4.54258871  49.76070404
H    11.05999947   4.23000002  47.77000046
H    12.39999962   6.40999985  52.05999756
H    10.21999931   5.80999947  53.04999924
H     7.92999983   5.01999950  52.74000168
H     8.78999996   4.05999994  48.68999863
H    16.98999977   4.94999981  48.11999893
H     6.19000006   3.98999977  51.45000076
H     6.65999985   2.91000009  50.15999603
