96

S    18.12000084   6.25999975  58.85000229
C    20.71000099   6.63999987  57.94000244
C    19.48999977   6.03999996  57.74000168
C    19.14999962   5.25000000  56.59000015
C    20.15999985   5.13999987  55.65000153
C    21.40999985   5.79999971  55.73999786
C    22.46000099   5.65000010  54.79000092
C    23.69999886   6.14000034  55.10000229
C    24.05999947   6.63000011  56.38999939
C    23.03999901   6.96000004  57.23999786
C    21.70999908   6.51999998  56.95000076
C    17.71000099   5.07999992  56.49000168
C    17.02999878   5.56999969  57.63000107
C    15.67000008   5.82999992  57.77999878
C    25.48999977   6.96000004  56.77999878
H    25.79578590   6.59732485  57.76135635
H    21.04999924   7.30999994  58.72000122
H    19.85000038   4.48000002  54.84000397
H    22.32000160   5.13000011  53.83999634
H    24.54999924   6.03999996  54.43000031
H    23.28000069   7.26999998  58.25000000
H    15.25000000   6.05000019  58.75999832
H    26.28999901   6.63999987  56.09000397
H    25.62000084   8.01999950  56.98999786
S    14.42999935   4.75000000  54.12000275
C    11.73999977   4.76000023  54.92000198
C    13.05999947   5.05999994  55.20000076
C    13.50999928   5.53999996  56.46999741
C    12.51999950   5.82000017  57.38999939
C    11.18999958   5.38999987  57.18000031
C    10.25000000   5.33999968  58.25000000
C     9.00000000   4.77999973  58.08000183
C     8.59000015   4.15000010  56.88000107
C     9.48999977   4.21000004  55.84000015
C    10.72999954   4.88999987  55.90999985
C    14.96000099   5.56999969  56.60999680
C    15.59000015   5.12000036  55.41999817
C    16.95999908   4.88000011  55.31999969
C     7.17999983   3.61999989  56.77000046
H     6.66962528   4.22252560  56.01861572
H    11.44000053   4.19000006  54.05000305
H    12.75000000   6.19999981  58.37999725
H    10.50000000   5.75999975  59.22000122
H     8.30999947   4.69000006  58.92000198
H     9.27999973   3.72000003  54.88999939
H    17.43999863   4.55000019  54.40999985
H     6.61999989   3.54999995  57.70999908
H     7.34000015   2.63000011  56.32999802
S    14.72000027   2.51999998  51.19999695
C    12.10000038   2.07999992  52.15000153
C    13.45999908   1.99000001  52.32999802
C    14.01000023   1.36999989  53.48999786
C    13.21000004   0.64999998  54.36999893
C    11.79999924   0.69999999  54.22000122
C    10.86999989   0.00000000  55.04000092
C     9.52000046   0.09000000  54.80999756
C     9.01000023   0.82999998  53.72000122
C     9.86999989   1.56000006  52.93000031
C    11.28000069   1.38999999  53.06999969
C    15.47000027   1.42000008  53.52000427
C    15.98999977   2.02999997  52.35000229
C    17.29999924   2.46000004  52.23999786
C     7.53000021   1.15999997  53.72000122
H     7.01890182   0.62760592  52.91785812
H    11.61000061   2.82999992  51.52000046
H    13.69999981   0.05000000  55.13000107
H    11.33999920  -0.56000000  55.84000015
H     8.84000015  -0.43000001  55.48999786
H     9.50000000   2.30999994  52.23999786
H    17.70000076   3.17000008  51.51000214
H     7.00000000   0.87000000  54.62999725
H     7.44000006   2.24000001  53.53000259
S    18.94000053   1.01999998  55.65000153
C    21.54000092   1.50000000  54.78000259
C    20.19000053   1.58999991  54.52999878
C    19.57999992   2.24000001  53.40000153
C    20.45999908   2.79000020  52.49000168
C    21.86000061   2.59000015  52.62000275
C    22.78000069   3.19000006  51.72000122
C    24.10000038   3.45999980  52.02000046
C    24.61000061   2.99000001  53.26000214
C    23.78999901   2.31999993  54.13000107
C    22.42000198   2.05999994  53.82999802
C    18.12999916   2.13000011  53.30999756
C    17.69000053   1.44999993  54.47999954
C    16.32999992   1.18000007  54.59999847
C    26.02000046   3.40000010  53.61999893
H    26.19103813   3.37149358  54.69611740
H    21.97999954   1.05999994  55.68000031
H    20.06000137   3.28999996  51.60999680
H    22.22999954   3.89999986  51.11999893
H    24.61999893   4.19000006  51.40999603
H    24.27999878   2.10999990  55.07999802
H    15.95000076   0.83999997  55.56000137
H    26.19999886   4.42999983  53.29000092
H    26.68000031   2.75999999  53.02999878
