96

S    16.50000000   5.86000013  58.61999893
C    19.18000031   6.03999996  57.81999969
C    17.88999939   5.64000034  57.54000092
C    17.56000137   5.09999990  56.25999832
C    18.56999969   4.88999987  55.34000015
C    19.89999962   5.33999968  55.54999924
C    20.86999893   5.09999990  54.54999924
C    22.17000008   5.36999989  54.91000366
C    22.55000114   5.96000004  56.14999771
C    21.57999992   6.17999983  57.09000015
C    20.20000076   5.93999958  56.83000183
C    16.11999893   5.12000036  56.10000229
C    15.42000008   5.49000025  57.27000427
C    14.02999973   5.49000025  57.34000397
C    23.94000053   6.56000042  56.25999832
H    24.52394676   6.21817827  57.11455536
H    19.42000008   6.51999998  58.75999832
H    18.36000061   4.44999981  54.36999893
H    20.55000114   4.63000011  53.61999893
H    22.95999908   5.38000011  54.18000031
H    21.87000084   6.69000053  58.01000214
H    13.47000027   5.75000000  58.22999954
H    24.51999855   6.47000027  55.34000015
H    23.75999832   7.63999987  56.23000336
S    12.81999969   4.30999994  53.75000000
C    10.13000011   4.11000013  54.65000153
C    11.44000053   4.51000023  54.82999802
C    11.84000015   5.07000017  56.09000397
C    10.98000050   5.21000004  57.15999985
C     9.63000011   4.86999989  56.93999863
C     8.67000008   5.00000000  57.98999786
C     7.37999964   4.55000019  57.84000015
C     6.98000002   3.89999986  56.63999939
C     7.85000038   3.86000013  55.58000183
C     9.19000053   4.30999994  55.68999863
C    13.28999996   5.12000036  56.19999695
C    13.97999954   4.78999996  55.00999832
C    15.36000061   4.85000038  54.94999695
C     5.72000027   3.07999992  56.45000076
H     5.22771549   3.45099711  55.55104828
H     9.73999977   3.52999973  53.81000137
H    11.35000038   5.44000053  58.15999985
H     9.01000023   5.29999971  58.97999573
H     6.56000042   4.72000027  58.52000427
H     7.55999994   3.38000011  54.65000153
H    15.90000057   4.61000013  54.02999878
H     5.09999990   3.14000010  57.36000061
H     5.86999989   2.00999999  56.29000092
S    13.22000027   2.40999985  50.97000122
C    10.69000053   1.58000004  51.81999969
C    12.05999947   1.43999994  51.90000153
C    12.67000008   0.87000000  53.04999924
C    11.85999966   0.25999999  53.99000168
C    10.44999981   0.27000001  53.80000305
C     9.59000015  -0.28000000  54.79000092
C     8.23000050  -0.08000001  54.72999954
C     7.60999966   0.57999998  53.62999725
C     8.38999939   1.08000004  52.61000061
C     9.80000019   0.93999994  52.70999908
C    14.06999969   1.28999996  53.11000061
C    14.59000015   2.05999994  52.04999924
C    15.92000008   2.46000004  51.93999863
C     6.11000013   0.69999999  53.48999786
H     5.74742460  -0.07491654  52.81461334
H    10.19999981   2.22000003  51.09000397
H    12.28999996  -0.17999999  54.88999939
H    10.05000019  -0.59999996  55.72000122
H     7.60999966  -0.43000001  55.54999924
H     8.00000000   1.72000003  51.81999969
H    16.28000069   3.00000000  51.06999969
H     5.58000040   0.64000005  54.45000076
H     5.92999983   1.65999997  53.00000000
S    17.39999962   0.97999996  55.40000153
C    20.02000046   1.26999998  54.47999954
C    18.68000031   1.52999997  54.29000092
C    18.22999954   2.13000011  53.08000183
C    19.19000053   2.59999990  52.19999695
C    20.56999969   2.38999987  52.39999771
C    21.59000015   2.94000006  51.56000137
C    22.93000031   2.86000013  51.86000061
C    23.32999992   2.06999993  52.97000122
C    22.40999985   1.61000001  53.88000107
C    21.02999878   1.67999995  53.56999969
C    16.77000046   2.07999992  52.98999786
C    16.25000000   1.38999999  54.10999680
C    14.93999958   0.93000001  54.13999939
C    24.77999878   1.72999990  53.25000000
H    25.25270462   2.48919487  53.87311554
H    20.42000008   0.87000000  55.40999985
H    18.94000053   3.07999992  51.25999832
H    21.25000000   3.45999980  50.66999817
H    23.61000061   3.31999993  51.14999771
H    22.72999954   1.15999997  54.81999969
H    14.65000057   0.27000001  54.94999695
H    25.23999977   1.58999991  52.27000427
H    24.80999947   0.75999999  53.77999878
