96

S    17.43999863   6.17999983  58.93000031
C    20.06999969   6.48000002  58.11000061
C    18.84000015   5.89999962  57.88000107
C    18.45000076   5.33999968  56.63000107
C    19.45000076   5.15999985  55.68999863
C    20.76999855   5.64000034  55.87999725
C    21.80000114   5.42999983  54.92000198
C    23.05999947   5.91000032  55.18000031
C    23.39999962   6.61999989  56.36000061
C    22.39000130   6.83000040  57.27000427
C    21.07000160   6.32000017  57.11000061
C    17.00000000   5.18000031  56.53999710
C    16.29999924   5.68000031  57.67000198
C    14.91000080   5.75999975  57.74000168
C    24.84999847   6.90000010  56.69000244
H    25.17777443   6.40121078  57.60207367
H    20.35000038   6.93000031  59.05000305
H    19.19000053   4.48999977  54.87999725
H    21.55999947   4.90000010  54.00000000
H    23.85000038   5.50000000  54.55999756
H    22.72000122   7.23999977  58.22000122
H    14.42000008   6.17000008  58.61999893
H    25.58000183   6.65000010  55.90000153
H    24.96999931   7.96999979  56.86000061
S    13.76999950   4.42000008  54.20999908
C    11.05000019   4.53000021  54.79000092
C    12.35000038   4.74000025  55.20999908
C    12.69000053   5.27999973  56.50000000
C    11.65999985   5.40999985  57.41000366
C    10.34000015   5.00999975  57.09000015
C     9.22000027   5.23999977  57.95000076
C     7.95000029   4.86999989  57.58999634
C     7.64999962   4.44999981  56.26999664
C     8.69000053   4.19000006  55.40999985
C    10.03000069   4.55000019  55.76000214
C    14.14000034   5.35000038  56.65000153
C    14.86999989   4.90000010  55.52000046
C    16.25000000   4.76000023  55.44000244
C     6.23000050   4.03999996  55.91999817
H     5.81133366   4.51543522  55.03299332
H    10.93000031   4.26000023  53.74000168
H    11.84999943   5.65999985  58.44999695
H     9.47000027   5.69999981  58.89999771
H     7.17000008   5.07999992  58.30999756
H     8.43000031   3.78999996  54.43999863
H    16.61999893   4.41000032  54.47999954
H     5.59999990   4.28000021  56.77999878
H     6.19999981   2.94000006  55.86999893
S    14.06999969   2.32999992  50.97000122
C    11.44000053   1.71000004  51.63000107
C    12.76999950   1.63000000  51.95999908
C    13.23999977   1.02999997  53.16999817
C    12.36999989   0.64000005  54.15999985
C    10.98000050   0.81000000  53.93000031
C     9.94999981   0.25000000  54.73999786
C     8.60000038   0.22000000  54.45999908
C     8.19000053   0.97000003  53.31999969
C     9.13999939   1.44999993  52.44999695
C    10.54999924   1.36999989  52.68000031
C    14.65999985   1.33000004  53.31999969
C    15.27999973   1.92000008  52.18999863
C    16.63999939   2.16999984  52.04999924
C     6.72999954   1.24000001  53.04999924
H     6.25987339   0.62741119  52.28070450
H    11.03999996   2.13000011  50.70999908
H    12.71000004   0.24000001  55.12000275
H    10.21999931  -0.37000000  55.59000015
H     7.92000008  -0.41000003  55.01999664
H     8.82000065   1.94000006  51.53999710
H    16.94000053   2.59000015  51.10000229
H     6.28999996   1.08000004  54.03999710
H     6.56000042   2.31999993  52.90999985
S    18.02000046   1.08000004  55.59999847
C    20.69000053   1.56000006  54.78000259
C    19.34000015   1.54999995  54.51000214
C    18.85000038   2.10999990  53.29000092
C    19.78000069   2.63999987  52.39999771
C    21.18000031   2.57999992  52.61000061
C    22.07999992   3.03999996  51.60999680
C    23.44000053   2.89999986  51.81000137
C    23.88000107   2.22000003  52.97000122
C    23.05000114   1.88999999  54.02000046
C    21.63999939   2.06999993  53.87000275
C    17.40999985   1.92000008  53.18999863
C    16.79000092   1.56000006  54.40999985
C    15.47000027   1.13999999  54.45000076
C    25.36999893   2.01999998  53.13000107
H    25.69799232   2.25529933  54.14250183
H    21.04999924   1.04999995  55.66999817
H    19.45000076   3.01999998  51.44000244
H    21.55999947   3.35999990  50.70999908
H    24.13999939   3.35000014  51.11999893
H    23.43000031   1.50000000  54.95999908
H    15.05000019   0.62000000  55.31000137
H    25.86999893   2.73000002  52.44999695
H    25.62000084   0.99000001  52.84000015
