96

S    17.88999939   5.86000013  58.69999695
C    20.55999947   6.17999983  58.01000214
C    19.30999947   5.75000000  57.64999771
C    18.89000130   5.46000004  56.31000137
C    19.86999893   5.44000053  55.33000183
C    21.19999886   5.84999990  55.59000015
C    22.25000000   5.71000004  54.62999725
C    23.52999878   6.11000013  54.93000031
C    23.80000114   6.51000023  56.25999832
C    22.86000061   6.48999977  57.27000427
C    21.51000023   6.17000008  56.95000076
C    17.46000099   5.26000023  56.17000198
C    16.76000023   5.59999990  57.36000061
C    15.38000011   5.77000046  57.36000061
C    25.17000008   7.03000021  56.63000107
H    25.66104507   6.48202324  57.43417740
H    20.86000061   6.61999989  58.95000076
H    19.67000008   5.13000011  54.29999924
H    22.00000000   5.45000029  53.61000061
H    24.20999908   6.25999975  54.09999847
H    23.01000214   6.83000040  58.29000092
H    14.84000015   6.11999989  58.22999954
H    25.84000015   6.91999960  55.76000214
H    25.12000084   8.09000015  56.91999817
S    14.15999985   4.48000002  53.81000137
C    11.51000023   4.19000006  54.75000000
C    12.79999924   4.65000010  54.93000031
C    13.17999935   5.26000023  56.17000198
C    12.23999977   5.40999985  57.16999817
C    10.90000057   5.00999975  56.98999786
C     9.96000004   5.09000015  58.06000137
C     8.64999962   4.76000023  57.81999969
C     8.25000000   4.15999985  56.59999847
C     9.15999985   4.05000019  55.56999969
C    10.51000023   4.44999981  55.72000122
C    14.61999989   5.46000004  56.23000336
C    15.29999924   5.03999996  55.05000305
C    16.68000031   4.88999987  55.06000137
C     6.80999994   3.74000025  56.37000275
H     6.44123983   4.02366161  55.38427734
H    11.36000061   3.63000011  53.82999802
H    12.57999992   5.68000031  58.16999817
H    10.34000015   5.46000004  59.01000214
H     8.00000000   4.90999985  58.68000031
H     8.96000004   3.40999985  54.71000290
H    17.27000046   4.51000023  54.22999954
H     6.12999964   4.23000002  57.06999969
H     6.83000040   2.64999986  56.50000000
S    14.42000008   2.31999993  50.94999695
C    11.87000084   1.64000010  51.79000092
C    13.22000027   1.50999999  51.97999954
C    13.73999977   0.97999996  53.20000076
C    12.86999893   0.45000002  54.13999939
C    11.46999931   0.54000002  53.94000244
C    10.53999996  -0.01000000  54.86999893
C     9.21000004  -0.09000000  54.52999878
C     8.64000034   0.56999999  53.41999817
C     9.53999996   1.19999993  52.58999634
C    10.95000076   1.18000007  52.76000214
C    15.15999985   1.25000000  53.26000214
C    15.62999916   2.09999990  52.22999954
C    16.90999985   2.63999987  52.25999832
C     7.16000032   0.35999998  53.16999817
H     6.80562496   0.89864993  52.29114914
H    11.59999943   2.00000000  50.79999924
H    13.32999992  -0.19000000  54.88999939
H    10.84000015  -0.43000001  55.83000183
H     8.60000038  -0.62000000  55.26000214
H     9.19000053   1.53999996  51.60999680
H    17.36999893   3.21000004  51.45999908
H     6.84999990  -0.69000000  53.20000076
H     6.65000010   0.76999998  54.03999710
S    18.71000099   1.00999999  55.34000015
C    21.22999954   1.75999999  54.51000214
C    19.88000107   1.88999999  54.34000015
C    19.30999947   2.39999986  53.13000107
C    20.07999802   3.02999997  52.16999817
C    21.47999954   2.98000002  52.36999893
C    22.39999962   3.58999991  51.47999573
C    23.77000046   3.53999996  51.62000275
C    24.28999901   2.79999995  52.70999908
C    23.47999954   2.28999996  53.68999863
C    22.06999969   2.27999997  53.48999786
C    17.86999893   2.19000006  53.18000031
C    17.36999893   1.36999989  54.22999954
C    16.06999969   0.88000000  54.26000214
C    25.79000092   2.61999989  52.77999878
H    26.18161392   2.85496759  53.76971054
H    21.75000000   1.15999997  55.26000214
H    19.63000107   3.53999996  51.32999802
H    22.03000069   4.11999989  50.59999847
H    24.46000099   3.98000002  50.90999985
H    23.90999985   1.72999990  54.52000046
H    15.69000053   0.27000001  55.06999969
H    26.30000114   3.35000014  52.14000320
H    25.94000053   1.56000006  52.50999832
