96

S    17.87999916   6.57000017  58.93000031
C    20.52000046   6.93000031  58.15999985
C    19.29000092   6.38000011  57.88000107
C    18.95000076   5.92000008  56.56000137
C    19.95000076   5.77000046  55.63000107
C    21.28999901   6.09000015  55.96000290
C    22.39000130   5.95000029  55.06999969
C    23.62999916   6.48000002  55.31999969
C    23.87000084   7.03000021  56.59999847
C    22.86000061   7.21000004  57.51999664
C    21.53000069   6.80999994  57.18999863
C    17.51000023   5.73000002  56.40999603
C    16.81999969   6.05000019  57.60000229
C    15.44000053   5.92999983  57.70999908
C    25.27000046   7.48000050  56.95000076
H    25.74670982   6.85387468  57.70419693
H    20.68000031   7.44000006  59.10999680
H    19.78999901   5.23999977  54.68999863
H    22.13000107   5.71000004  54.03999710
H    24.40999985   6.46000004  54.55999756
H    23.11000061   7.76000023  58.41999817
H    14.98000050   5.75999975  58.67000198
H    26.00000000   7.48000050  56.12999725
H    25.17000008   8.52999973  57.25000000
S    14.32999992   4.75000000  54.05000305
C    11.65999985   4.28000021  54.88999939
C    12.93000031   4.75000000  55.13999939
C    13.30999947   5.28999996  56.40999603
C    12.34000015   5.45000029  57.38999939
C    11.02000046   5.03000021  57.12999725
C     9.96999931   5.13999987  58.09000015
C     8.67000008   4.76000023  57.83000183
C     8.36999989   4.19000006  56.56000137
C     9.32999992   3.98000002  55.59999847
C    10.65999985   4.41000032  55.89000320
C    14.72000027   5.59999990  56.55000305
C    15.39999962   5.35000038  55.33000183
C    16.79000092   5.38999987  55.26000214
C     6.97000027   3.67000008  56.30000305
H     6.47238016   4.08942223  55.42561340
H    11.50000000   3.81999993  53.92000198
H    12.64999962   5.86000013  58.34999847
H    10.17000008   5.68000031  59.01000214
H     7.90000010   4.92000008  58.56999969
H     9.13000011   3.45000005  54.68000031
H    17.34000015   5.18000031  54.34999847
H     6.32999992   3.75999975  57.18999863
H     7.07999992   2.57999992  56.24000168
S    14.77000046   2.89999986  50.91999817
C    12.18999958   2.19000006  51.56999969
C    13.52000046   2.10999990  51.90000153
C    14.09000015   1.43999994  53.02999878
C    13.25000000   0.82999998  53.94000244
C    11.87000084   0.92000002  53.64999771
C    10.93000031   0.34999999  54.55999756
C     9.59000015   0.31000000  54.27000046
C     9.02000046   0.88999999  53.09999847
C     9.90999985   1.47000003  52.22999954
C    11.31000042   1.56000006  52.49000168
C    15.51000023   1.75000000  53.16999817
C    16.01000023   2.59999990  52.15000153
C    17.28000069   3.17000008  52.21000290
C     7.50999975   0.94999999  53.06000137
H     6.88477850   0.21820647  52.54845810
H    11.82999992   2.79999995  50.75000000
H    13.57999992   0.11000000  54.68000031
H    11.31000042   0.08000001  55.54000092
H     8.92000008   0.05000000  55.07999802
H     9.52000046   1.89999998  51.31000137
H    17.64999962   3.67000008  51.31999969
H     7.05999947   0.99000001  54.06000137
H     7.32999992   1.93000007  52.61000061
S    18.81999969   1.43999994  55.47000122
C    21.35000038   2.30999994  54.81999969
C    20.00999832   2.34999990  54.52000046
C    19.54000092   3.05999994  53.36999893
C    20.42000008   3.38000011  52.35000229
C    21.80999947   3.23000002  52.56999969
C    22.72999954   3.79999995  51.65000153
C    24.07999992   3.79999995  51.90999985
C    24.56999969   3.21000004  53.09999847
C    23.68999863   2.70000005  54.02000046
C    22.27000046   2.75000000  53.83999634
C    18.09999847   2.87999988  53.30999756
C    17.59000015   2.03999996  54.33000183
C    16.35000038   1.42000008  54.23999786
C    25.97999954   3.60000014  53.48999786
H    26.34879112   3.09645867  54.38360977
H    21.61999893   1.87999988  55.77999878
H    20.00999832   3.81000018  51.43000031
H    22.34000015   4.44999981  50.86000061
H    24.68000031   4.44999981  51.27999878
H    23.92999840   2.39999986  55.04000092
H    16.04999924   0.64000005  54.93000031
H    26.02000046   4.67999983  53.63999939
H    26.60000038   3.33999991  52.63000107
