96

S    17.84000015   6.01999998  58.48999786
C    20.43999863   6.39999962  57.55000305
C    19.15999985   5.96000004  57.30999756
C    18.68999863   5.53999996  56.02000427
C    19.61000061   5.47999954  54.99000168
C    20.96999931   5.82999992  55.21999741
C    21.97000122   5.91000032  54.22000122
C    23.29999924   6.17000008  54.43000031
C    23.68999863   6.63000011  55.72000122
C    22.72999954   6.78999996  56.69000244
C    21.38999939   6.34999990  56.50000000
C    17.27000046   5.22000027  56.04000092
C    16.64999962   5.46000004  57.29999924
C    15.26999950   5.42000008  57.48000336
C    25.10999870   7.07999992  55.94999695
H    25.45114517   6.48299742  56.79575729
H    20.75000000   6.94999981  58.43000031
H    19.19999886   5.49000025  53.99000168
H    21.67000008   5.52999973  53.23999786
H    23.97999954   6.00000000  53.60000229
H    23.02000046   7.22000027  57.64999771
H    14.73000050   5.82999992  58.31999969
H    25.78000069   7.00999975  55.07999802
H    25.12000084   8.14000034  56.23000336
S    13.89999962   4.23000002  53.90999603
C    11.25000000   4.01999998  54.86000061
C    12.56000042   4.38000011  55.06000137
C    13.03999996   4.90999985  56.31000137
C    12.11999989   5.15999985  57.30999756
C    10.77000046   4.75000000  57.16999817
C     9.77999973   4.79999971  58.18999863
C     8.43999958   4.61000013  57.93000031
C     8.05000019   3.98000002  56.72000122
C     9.02000046   3.65000010  55.80999756
C    10.34000015   4.18000031  55.93000031
C    14.47999954   5.01999950  56.38999939
C    15.08999920   4.69000006  55.14999771
C    16.46000099   4.80999994  54.98000336
C     6.57999992   3.73000002  56.50000000
H     6.11120367   4.35506201  55.73998260
H    10.98000050   3.45000005  53.96999741
H    12.51000023   5.56999969  58.23999786
H    10.06999969   5.10999966  59.19000244
H     7.76000023   4.90000010  58.72000122
H     8.78000069   3.00999999  54.95999908
H    16.87999916   4.48000002  54.02999878
H     5.92000008   3.74000025  57.36999893
H     6.65000010   2.72000027  56.05999756
S    17.40999985   6.71000004  52.56999969
C    20.02000046   7.07999992  51.70999908
C    18.81000137   6.44999981  51.51000214
C    18.42000008   5.92000008  50.24000168
C    19.43000031   5.78999996  49.29999924
C    20.75000000   6.25999975  49.50000000
C    21.83000183   6.11999989  48.57999802
C    23.06999969   6.65999985  48.81000137
C    23.22000122   7.62000036  49.85000229
C    22.20999908   7.77999973  50.77000046
C    21.00000000   7.04999971  50.68000031
C    16.98999977   5.68000031  50.13000107
C    16.31999969   6.15000010  51.27999878
C    14.93000031   6.19999981  51.37000275
C    24.54000092   8.34000015  50.02999878
H    25.19715309   7.71111059  50.63062286
H    20.12000084   7.77999973  52.54000092
H    19.26000023   5.19000006  48.40999985
H    21.61000061   5.55000019  47.68000031
H    23.85999870   6.46000004  48.09999847
H    22.46999931   8.30999947  51.69000244
H    14.32999992   6.30999994  52.27000427
H    24.99000168   8.51000023  49.05000305
H    24.43000031   9.35000038  50.43000031
S    13.71000099   4.74000025  47.90000153
C    11.05999947   4.44999981  48.79000092
C    12.34000015   4.90999985  49.01000214
C    12.71999931   5.53999996  50.24000168
C    11.78999996   5.61999989  51.25999832
C    10.44999981   5.19000006  51.05999756
C     9.40999985   5.45000029  51.98999786
C     8.13000011   4.96000004  51.91999817
C     7.82999992   4.21999979  50.73999786
C     8.76000023   4.05000019  49.73999786
C    10.06999969   4.59999990  49.79999924
C    14.14999962   5.84000015  50.27000046
C    14.82999992   5.38000011  49.12000275
C    16.21000099   5.27999973  49.02999878
C     6.44000006   3.67000008  50.52000046
H     5.82026196   4.23275042  49.82190704
H    10.77000046   3.84999990  47.94000244
H    12.07999992   6.03999996  52.22000122
H     9.72999954   6.03999996  52.84000015
H     7.44000006   5.19999981  52.71999741
H     8.56000042   3.25999999  49.02000046
H    16.65999985   4.84000015  48.13999939
H     5.89999962   3.60000014  51.46999741
H     6.61999989   2.66000009  50.13000107
