96

S    17.02000046   6.09000015  58.66000366
C    19.62000084   6.58999968  57.65999603
C    18.32999992   6.12999964  57.47000122
C    18.00000000   5.56999969  56.19999695
C    18.96999931   5.51000023  55.20999908
C    20.32999992   5.80999947  55.45000076
C    21.38999939   5.65999985  54.50000000
C    22.65000153   6.19000006  54.65000153
C    22.95000076   6.71999979  55.93000031
C    22.01999855   6.75000000  56.95000076
C    20.66999817   6.37000036  56.72999954
C    16.59000015   5.23000002  56.18999863
C    15.90999985   5.50000000  57.41000366
C    14.53999996   5.42000008  57.63999939
C    24.34000015   7.30000019  56.05999756
H    24.87401772   6.79446411  56.86458206
H    19.82999992   7.05999947  58.61000061
H    18.61999893   5.15999985  54.23999786
H    21.14999962   5.15999985  53.56999969
H    23.42000008   6.25000000  53.88000107
H    22.36000061   7.22000027  57.87000275
H    14.09000015   5.84000015  58.54000092
H    24.90999985   7.05999947  55.15999603
H    24.18000031   8.38000011  56.16000366
S    13.32999992   4.03999996  54.09999847
C    10.65999985   3.88999987  54.93999863
C    11.94000053   4.34999990  55.15999603
C    12.30000019   4.90999985  56.43000031
C    11.30000019   5.03000021  57.36999893
C    10.01999950   4.42999983  57.28000259
C     9.07999992   4.36999989  58.36000061
C     7.82999992   3.82999992  58.20000076
C     7.53999996   3.25000000  56.93000031
C     8.40999985   3.30000019  55.86999893
C     9.72000027   3.84999990  56.00000000
C    13.75000000   4.99000025  56.56999969
C    14.39000034   4.76000023  55.33000183
C    15.76000023   4.86999989  55.12000275
C     6.24000025   2.59000015  56.52000046
H     5.64924812   3.35868955  56.02177429
H    10.36000061   3.44000006  54.00000000
H    11.54000092   5.38999987  58.36999893
H     9.35999966   4.86000013  59.29000092
H     7.04999971   3.63000011  58.92000198
H     8.14999962   2.98000002  54.86999893
H    16.18000031   4.75000000  54.13000107
H     5.80999947   2.16999984  57.43999863
H     6.30999994   1.74000001  55.84000015
S    13.94000053   1.89999998  50.96000290
C    11.33999920   1.26999998  51.76000214
C    12.68000031   1.25000000  52.04000092
C    13.21000004   0.69000000  53.25000000
C    12.31999969   0.08000001  54.12000275
C    10.93000031   0.09999999  53.87000275
C    10.01999950  -0.46000001  54.80999756
C     8.65999985  -0.45000002  54.62999725
C     8.14999962   0.11000000  53.43000031
C     9.00000000   0.67000002  52.50999832
C    10.40999985   0.65999997  52.64999771
C    14.61999989   1.00999999  53.36000061
C    15.08999920   1.84000003  52.30999756
C    16.39000130   2.29999995  52.15000153
C     6.65999985   0.25000000  53.16999817
H     6.20320225  -0.42805910  52.44911575
H    11.06999969   1.86000001  50.89000320
H    12.69999981  -0.41999999  55.00999832
H    10.44000053  -1.00000000  55.65999985
H     8.01000023  -0.88000000  55.38999939
H     8.64999962   1.15999997  51.59999847
H    16.62999916   3.00000000  51.36000061
H     6.25000000   0.09000000  54.18000031
H     6.48000002   1.28000009  52.84999847
S    18.07999992   0.82000005  55.40000153
C    20.68000031   1.43000007  54.52000046
C    19.31999969   1.52999997  54.34000015
C    18.78000069   1.95999992  53.09000015
C    19.63999939   2.49000001  52.15000153
C    21.04000092   2.61000013  52.36999893
C    21.93000031   3.23000002  51.45000076
C    23.29000092   3.22000003  51.68000031
C    23.81999969   2.52999997  52.80000305
C    22.96999931   1.95999992  53.70999908
C    21.54999924   1.98000002  53.54999924
C    17.32999992   1.81999993  53.06999969
C    16.81999969   1.13000000  54.20000076
C    15.53999996   0.61000001  54.34000015
C    25.29000092   2.56999993  53.15999985
H    25.46848106   3.32676554  53.92390442
H    21.01000023   0.88999999  55.40999985
H    19.37999916   2.66000009  51.11000061
H    21.50000000   3.58000016  50.52000046
H    23.88999939   3.75000000  50.94999695
H    23.38999939   1.64000010  54.65999985
H    15.25000000   0.06000000  55.22999573
H    25.88999939   2.87999988  52.29000092
H    25.65000153   1.58000004  53.47000122
