96

S    17.71999931   6.65999985  58.61000061
C    20.39999962   6.80999994  57.87000275
C    19.12999916   6.37000036  57.56999969
C    18.81999969   5.71000004  56.32999802
C    19.75000000   5.59999990  55.31999969
C    21.04000092   6.12999964  55.58000183
C    22.09000015   6.00000000  54.64000320
C    23.34000015   6.51000023  54.92000198
C    23.72999954   6.90999985  56.22000122
C    22.70999908   7.13999987  57.11999893
C    21.38000107   6.67999983  56.86999893
C    17.38000107   5.50000000  56.25000000
C    16.64999962   6.01000023  57.36000061
C    15.26000023   6.05000019  57.43000031
C    25.15999985   7.26999998  56.53999710
H    25.64960670   6.60300112  57.24957275
H    20.75000000   7.14999962  58.83999634
H    19.55000114   5.12000036  54.36000061
H    21.84999847   5.60999966  53.64999771
H    24.05999947   6.51999998  54.10999680
H    22.98000145   7.62000036  58.04999924
H    14.92000008   6.32999992  58.43000031
H    25.73999786   7.17000008  55.61000061
H    25.20999908   8.32999992  56.81999969
S    14.06999969   4.30000019  54.13999939
C    11.39000034   4.02999973  55.00999832
C    12.69000053   4.42000008  55.25000000
C    13.07000065   5.23000002  56.37000275
C    12.07999992   5.55000019  57.29000092
C    10.77999973   5.00000000  57.18999863
C     9.72999954   5.22000027  58.13000107
C     8.51000023   4.63999987  57.90999985
C     8.14000034   3.93000007  56.72999954
C     9.11000061   3.75000000  55.77999878
C    10.42000008   4.26999998  56.00999832
C    14.50000000   5.50000000  56.38999939
C    15.22999954   4.99000025  55.28999710
C    16.61999893   5.00000000  55.19000244
C     6.76000023   3.31999993  56.58000183
H     6.31762028   3.73383927  55.67383575
H    11.13000011   3.47000003  54.12000275
H    12.39999962   6.01000023  58.22000122
H     9.94999981   5.77000046  59.05000305
H     7.76000023   4.80999994  58.68000031
H     8.97000027   3.19999981  54.85000229
H    17.13999939   4.73000002  54.27999878
H     6.15000010   3.58000016  57.45999908
H     6.78999996   2.23000002  56.45999908
S    14.14000034   2.15000010  51.13999939
C    11.52999973   1.75999999  51.98999786
C    12.86999893   1.58999991  52.23999786
C    13.40000057   0.90000004  53.37999725
C    12.51999950   0.46000001  54.34999847
C    11.11999989   0.54000002  54.13999939
C    10.18000031   0.03000000  55.07999802
C     8.85000038   0.14999999  54.75999832
C     8.36999989   0.75000000  53.56999969
C     9.25000000   1.26999998  52.65999603
C    10.65000057   1.16999996  52.93000031
C    14.84000015   1.02999997  53.50000000
C    15.32999992   1.77999997  52.41000366
C    16.65999985   2.17999983  52.29000092
C     6.86999989   0.83999997  53.36000061
H     6.54142332   0.41856495  52.40998459
H    11.23000050   2.32999992  51.11000061
H    12.89999962  -0.00000000  55.26000214
H    10.50000000  -0.48000002  55.97999954
H     8.15999985  -0.22000000  55.51000214
H     8.90999985   1.76999998  51.76000214
H    16.97999954   2.75999999  51.43000031
H     6.34999990   0.37000000  54.20999908
H     6.60000038   1.89999998  53.40000153
S    18.32999992   0.83999997  55.66999817
C    20.86999893   1.79000008  54.82999802
C    19.52000046   1.66999996  54.64000320
C    18.90999985   2.26999998  53.48999786
C    19.70000076   2.92000008  52.56000137
C    21.09999847   3.05999994  52.75000000
C    21.88999939   3.84999990  51.86000061
C    23.23999786   3.91999984  52.08000183
C    23.90000153   3.26999998  53.15999985
C    23.12000084   2.52999997  54.02999878
C    21.71999931   2.38999987  53.86000061
C    17.51000023   1.88999999  53.36000061
C    17.05000114   1.16999996  54.48999786
C    15.76000023   0.65999997  54.50000000
C    25.38999939   3.45000005  53.31999969
H    25.90089417   2.97458529  54.15729904
H    21.40000153   1.49000001  55.73999786
H    19.22999954   3.38000011  51.70000076
H    21.42999840   4.41000032  51.04999924
H    23.81000137   4.48999977  51.35000229
H    23.65999985   1.99000001  54.79999924
H    15.36999893   0.14999999  55.37000275
H    25.53999901   4.53000021  53.33000183
H    25.78000069   3.01999998  52.38999939
