96

S    17.18000031   6.48000002  58.68999863
C    19.85999870   6.80999994  57.88000107
C    18.61999893   6.23000050  57.69000244
C    18.34000015   5.55999994  56.45999908
C    19.29999924   5.29999971  55.50000000
C    20.55000114   5.92999983  55.65000153
C    21.55999947   5.80999947  54.65000153
C    22.73999977   6.50000000  54.82999802
C    23.02000046   7.26000023  55.98999786
C    22.09000015   7.27999973  57.01000214
C    20.81000137   6.70000029  56.83000183
C    16.93000031   5.21000004  56.38000107
C    16.15999985   5.71000004  57.45999908
C    14.78000069   5.86000013  57.45999908
C    24.38999939   7.86999989  56.20999908
H    24.94281197   7.16126633  56.82659912
H    20.13999939   7.44999981  58.70999908
H    19.11999893   4.65000010  54.64000320
H    21.28999901   5.42999983  53.66000366
H    23.59000015   6.37000036  54.18000031
H    22.27000046   7.90999985  57.88000107
H    14.23999977   6.48000002  58.16999817
H    24.90999985   8.10999966  55.27000046
H    24.40000153   8.80999947  56.77000046
S    13.80000019   3.67000008  54.27999878
C    11.09000015   3.65000010  55.08999634
C    12.38999939   4.05000019  55.28999710
C    12.71999931   4.96000004  56.33999634
C    11.71000004   5.42999983  57.15000153
C    10.42000008   4.85000038  57.09999847
C     9.44999981   5.00000000  58.13000107
C     8.17000008   4.51999998  58.04999924
C     7.82999992   3.76999998  56.88999939
C     8.73999977   3.48000002  55.90000153
C    10.06999969   3.97000027  56.02000427
C    14.17000008   5.14999962  56.42000198
C    14.89999962   4.48999977  55.40999985
C    16.28999901   4.56999969  55.31000137
C     6.44000006   3.17999983  56.77000046
H     5.83626080   3.64168286  55.98868942
H    10.73999977   3.02999997  54.27000046
H    11.89000034   6.11999989  57.97999954
H     9.85000038   5.46000004  59.03999710
H     7.40999985   4.55999994  58.81999969
H     8.40999985   2.94000006  55.01999664
H    16.84999847   4.35999966  54.40000153
H     5.98999977   3.17000008  57.77000046
H     6.71000004   2.14000010  56.56999969
S    13.43000031   1.66999996  51.04000092
C    10.84000015   1.22000003  52.11999893
C    12.20999908   1.08999991  52.18999863
C    12.88000011   0.50000000  53.30999756
C    12.05999947   0.00000000  54.31000137
C    10.65000057   0.11000000  54.27999878
C     9.77000046  -0.31000000  55.31000137
C     8.40999985  -0.34999999  55.10000229
C     7.78999996   0.07000000  53.89999771
C     8.60000038   0.63000000  52.93000031
C    10.01000023   0.61000001  53.09000015
C    14.34000015   0.54000002  53.27000046
C    14.77000046   1.25999999  52.12999725
C    16.06999969   1.74000001  52.04999924
C     6.32999992  -0.20999999  53.66000366
H     6.18732119  -1.12314284  53.08215332
H    10.39999962   1.77999997  51.30000305
H    12.64000034  -0.37000000  55.14999771
H    10.21999931  -0.57999998  56.26999664
H     7.92000008  -1.00000000  55.80999756
H     8.21000004   0.87000000  51.93999863
H    16.44000053   2.33999991  51.22000122
H     5.88999987  -0.38000000  54.65000153
H     5.86000013   0.64000005  53.13999939
S    17.67000008   0.67000002  55.52000046
C    20.25000000   1.53999996  54.80999756
C    18.93000031   1.36000013  54.47999954
C    18.30999947   1.92000008  53.31999969
C    19.18000031   2.54999995  52.43999863
C    20.52000046   2.89000010  52.76000214
C    21.42999840   3.45000005  51.81999969
C    22.78000069   3.58999991  52.00000000
C    23.31000137   2.99000001  53.16999817
C    22.49000168   2.36000013  54.06999969
C    21.07999992   2.31999993  53.95999908
C    16.93000031   1.50999999  53.13000107
C    16.44000053   0.78000003  54.23999786
C    15.17000008   0.23000000  54.34999847
C    24.79000092   3.02999997  53.47999954
H    25.11762810   2.65251589  54.44864273
H    20.59999847   0.90999997  55.61999893
H    18.86000061   2.84999990  51.45000076
H    20.95000076   3.75999975  50.90000153
H    23.36000061   4.21999979  51.32999802
H    22.88000107   1.65999997  54.81999969
H    14.75999928  -0.27000001  55.21999741
H    25.26000023   4.00000000  53.29000092
H    25.38999939   2.51999998  52.70999908
