96

S    17.52000046   6.74000025  58.89999771
C    20.22999954   6.90000010  58.06000137
C    18.90999985   6.63000011  57.78999710
C    18.56999969   6.14000034  56.49000168
C    19.52999878   5.88000011  55.52999878
C    20.86000061   6.30999994  55.75000000
C    21.90999985   6.25000000  54.79000092
C    23.15999985   6.77999973  54.99000168
C    23.45999908   7.39000034  56.24000168
C    22.50000000   7.42999983  57.22999954
C    21.19999886   6.89000034  57.02000046
C    17.13000107   5.98000002  56.36000061
C    16.45000076   6.38000011  57.54000092
C    15.06999969   6.25000000  57.70999908
C    24.75000000   8.14999962  56.44000244
H    25.33481979   7.45819950  57.04621887
H    20.55999947   7.17999983  59.05000305
H    19.27999878   5.40999985  54.58000183
H    21.63999939   5.84999990  53.81000137
H    23.88000107   6.67999983  54.18000031
H    22.80999947   7.73000002  58.22999954
H    14.57999992   6.44000006  58.66000366
H    25.15999985   8.40999985  55.45999908
H    24.54000092   9.09000015  56.97000122
S    13.97999954   4.65999985  54.20999908
C    11.28999901   4.41000032  55.14999771
C    12.57999992   4.84000015  55.28999710
C    12.89999962   5.45000029  56.55000305
C    12.00000000   5.64000034  57.57999802
C    10.73999977   5.00000000  57.50000000
C     9.77999973   5.03000021  58.54999924
C     8.56999969   4.39000034  58.37999725
C     8.26000023   3.70000005  57.18000031
C     9.15000057   3.71000004  56.11999893
C    10.38000011   4.40000010  56.24000168
C    14.34000015   5.65999985  56.66999817
C    15.03999901   5.23999977  55.51000214
C    16.40999985   5.38000011  55.31999969
C     6.93000031   3.00999999  56.95000076
H     6.19671059   3.60802221  56.40893173
H    11.09000015   3.94000006  54.19000244
H    12.35999966   6.09000015  58.50999832
H    10.03999901   5.59000015  59.43999863
H     7.81000042   4.44999981  59.15000153
H     8.90999985   3.25000000  55.17000198
H    16.87000084   4.90000010  54.47000122
H     6.47000027   2.80999994  57.91999817
H     7.17999983   1.99000001  56.63000107
S    17.75000000   6.94000006  52.71999741
C    20.34000015   7.40999985  51.81999969
C    19.09000015   6.88000011  51.56000137
C    18.71000099   6.34999990  50.28999710
C    19.64999962   6.23000050  49.27999878
C    20.93000031   6.80999994  49.47000122
C    21.97000122   6.69000053  48.50999832
C    23.16999817   7.32999992  48.74000168
C    23.43000031   8.00000000  49.95999908
C    22.49000168   8.06999969  50.97000122
C    21.25000000   7.40000010  50.73999786
C    17.30999947   5.95000029  50.28999710
C    16.63999939   6.32000017  51.47999573
C    15.26000023   6.30000019  51.63000107
C    24.82000160   8.55000019  50.20999908
H    25.26912117   8.15791035  51.12250137
H    20.48999977   8.09000015  52.65999603
H    19.47999954   5.61999989  48.40000153
H    21.90999985   6.05000019  47.63999939
H    23.97000122   7.26999998  48.01000214
H    22.65999985   8.56000042  51.91999817
H    14.77000046   6.65000010  52.52999878
H    25.45999908   8.32999992  49.34999847
H    24.65999985   9.63000011  50.34000015
S    14.01999950   4.85000038  48.11999893
C    11.36999989   4.73000002  49.05000305
C    12.69000053   5.07000017  49.27000046
C    13.05999947   5.59999990  50.54999924
C    12.11999989   5.79999971  51.53999710
C    10.80000019   5.35000038  51.31000137
C     9.86999989   5.29999971  52.38999939
C     8.57999992   4.88000011  52.15999985
C     8.19999981   4.28999996  50.93000031
C     9.11999989   4.13000011  49.92000198
C    10.39999962   4.73000002  50.07999802
C    14.51000023   5.77000046  50.56999969
C    15.15999985   5.40999985  49.36000061
C    16.53000069   5.56999969  49.19000244
C     6.84999990   3.61000013  50.84000015
H     6.18564653   4.23863506  50.24708176
H    11.09000015   4.23000002  48.13000107
H    12.35999966   6.28999996  52.48000336
H    10.14000034   5.75000000  53.34999847
H     7.92999983   4.92999983  53.02999878
H     8.97999954   3.50000000  49.05000305
H    16.97000122   5.59000015  48.20000076
H     6.48000002   3.38999987  51.84999847
H     6.94000006   2.64999986  50.31000137
