96

S    17.64999962   6.25000000  58.83999634
C    20.36999893   6.39999962  58.18000031
C    19.09000015   6.01000023  57.84000015
C    18.71999931   5.63000011  56.51000214
C    19.68000031   5.55999994  55.52000046
C    21.00000000   5.98000002  55.79000092
C    22.11000061   5.91000032  54.89999771
C    23.38000107   6.30999994  55.22999573
C    23.68999863   6.72999954  56.55000305
C    22.65000153   6.76999998  57.44999695
C    21.31000137   6.43000031  57.11999893
C    17.28999901   5.42000008  56.31999969
C    16.59000015   5.82000017  57.48000336
C    15.19999981   5.86999989  57.56999969
C    25.05000114   7.22000027  56.97999954
H    25.61790085   6.39654350  57.41302109
H    20.71000099   6.70000029  59.16999817
H    19.40000153   5.38000011  54.47999954
H    21.86000061   5.66999960  53.87000275
H    24.13999939   6.42000008  54.45999908
H    22.85000038   7.00000000  58.48999786
H    14.65000057   6.34000015  58.36999893
H    25.52999878   7.55000019  56.04999924
H    25.06000137   8.15999985  57.55000305
S    14.09000015   4.42999983  54.05000305
C    11.44999981   3.94000006  55.02999878
C    12.74000072   4.38000011  55.20000076
C    13.02000046   4.99000025  56.45999908
C    12.05000019   5.12000036  57.43999863
C    10.75000000   4.59000015  57.25000000
C     9.75000000   4.57999992  58.26000214
C     8.47000027   4.13000011  58.02000046
C     8.17000008   3.60000014  56.72999954
C     9.11000061   3.45000005  55.75000000
C    10.42000008   3.94000006  56.00999832
C    14.45000076   5.26000023  56.55000305
C    15.15999985   4.77999973  55.41999817
C    16.53000069   4.90999985  55.26000214
C     6.78999996   3.05000019  56.43000031
H     6.27214241   3.51820040  55.59291458
H    11.07999992   3.75000000  54.02000046
H    12.35000038   5.42000008  58.43000031
H     9.94999981   4.94999981  59.26000214
H     7.64999962   4.19999981  58.72000122
H     8.88000011   2.87999988  54.85000229
H    17.10000038   4.55000019  54.40999985
H     6.21999979   3.08999991  57.36000061
H     6.93000031   1.98000002  56.22000122
S    17.71999931   6.94000006  52.81000137
C    20.38999939   7.23999977  51.88999939
C    19.09000015   6.81999969  51.69000244
C    18.68999863   6.38000011  50.38999939
C    19.60000038   6.19999981  49.36000061
C    20.95000076   6.56000042  49.58000183
C    21.96000099   6.21000004  48.62999725
C    23.29000092   6.42000008  48.88999939
C    23.67000198   7.07999992  50.10000229
C    22.72999954   7.39000034  51.04999924
C    21.35000038   7.09000015  50.86000061
C    17.25000000   6.17000008  50.34000015
C    16.56999969   6.44000006  51.56000137
C    15.19000053   6.44999981  51.70999908
C    25.15000153   7.36000013  50.26000214
H    25.56165886   6.75670671  51.06912231
H    20.69999886   7.71000004  52.81000137
H    19.29000092   5.69999981  48.44999695
H    21.65999985   5.69999981  47.71999741
H    24.07999992   6.07999992  48.22999954
H    22.95000076   7.96999979  51.93999863
H    14.72000027   6.61000013  52.67000198
H    25.72000122   7.07000017  49.36999893
H    25.38000107   8.42000008  50.40999985
S    14.07999992   5.46000004  48.02000046
C    11.50000000   4.84000015  48.88999939
C    12.71000004   5.44000053  49.15000153
C    12.97999954   6.01000023  50.43000031
C    11.97000027   6.05999994  51.37000275
C    10.69000053   5.51000023  51.11000061
C     9.63999939   5.69000006  52.05999756
C     8.34999943   5.33999968  51.77999878
C     8.21000004   4.56999969  50.59000015
C     9.17000008   4.34999990  49.61999893
C    10.48999977   4.78999996  49.87999725
C    14.42000008   6.17999983  50.56999969
C    15.14000034   5.92999983  49.36999893
C    16.52000046   5.86999989  49.19000244
C     6.90000010   3.84000015  50.40000153
H     6.28148937   4.31632423  49.63930511
H    11.36999989   4.51000023  47.85999680
H    12.25000000   6.35999966  52.37999725
H     9.88000011   6.15999985  53.01000214
H     7.50000000   5.56999969  52.41000366
H     8.93000031   3.94000006  48.63999939
H    16.90999985   5.65000010  48.20000076
H     6.43000031   3.79999995  51.38000107
H     7.09000015   2.76999998  50.20000076
