96

S    18.15000153   6.24000025  58.70999908
C    20.75000000   6.47000027  57.93000031
C    19.47999954   6.11000013  57.54000092
C    19.12999916   5.38999987  56.35000229
C    20.12000084   5.18000031  55.40000153
C    21.44000053   5.59000015  55.66999817
C    22.43999863   5.46999979  54.66999817
C    23.75999832   5.68000031  55.00000000
C    24.03000069   6.34000015  56.23000336
C    23.05999947   6.69000053  57.12999725
C    21.71999931   6.24000025  56.93000031
C    17.70000076   5.15999985  56.24000168
C    17.09000015   5.58000040  57.44999695
C    15.71000004   5.64000034  57.61000061
C    25.43000031   6.85999966  56.44000244
H    26.04247093   6.13358021  56.97413254
H    20.96999931   7.11000013  58.77999878
H    19.86999893   4.92000008  54.38000107
H    22.17000008   5.07999992  53.68999863
H    24.48999786   5.46000004  54.22999954
H    23.35000038   7.35000038  57.95000076
H    15.39999962   5.79999971  58.63999939
H    25.86999893   7.25000000  55.51000214
H    25.30999947   7.72000027  57.11000061
S    14.32000065   4.50000000  54.06999969
C    11.69999981   4.30000019  55.06000137
C    12.98999977   4.75000000  55.21999741
C    13.45999908   5.28999996  56.45999908
C    12.48999977   5.50000000  57.43000031
C    11.13000011   5.13000011  57.31999969
C    10.11000061   5.31000042  58.29999924
C     8.82999992   4.82999992  58.15999985
C     8.42000008   4.26999998  56.91999817
C     9.39000034   4.07000017  55.97000122
C    10.75000000   4.48000002  56.10000229
C    14.91000080   5.42999983  56.47999573
C    15.52000046   5.03000021  55.27000046
C    16.88999939   4.86999989  55.13999939
C     7.04999971   3.67000008  56.75000000
H     6.36944246   4.20877457  56.09070969
H    11.42000008   3.73000002  54.16999817
H    12.75000000   6.11000013  58.29000092
H    10.34999943   5.86000013  59.20000076
H     8.09000015   4.81999969  58.95999908
H     9.03999996   3.61999989  55.04000092
H    17.29999924   4.59000015  54.16999817
H     6.54999971   3.48000002  57.70999908
H     7.11999989   2.70000005  56.24000168
S    14.88999939   2.73000002  51.17000198
C    12.31999969   1.94999993  52.01000214
C    13.68000031   1.87000012  52.15000153
C    14.27999973   1.28000009  53.30999756
C    13.38999939   0.65999997  54.16999817
C    11.97999954   0.67000002  54.03999710
C    11.05000019   0.01000000  54.88999939
C     9.68999958   0.09000000  54.73999786
C     9.10000038   0.78000003  53.63999939
C    10.00000000   1.29999995  52.72999573
C    11.40999985   1.28999996  52.87000275
C    15.69000053   1.62000000  53.43000031
C    16.18999863   2.31999993  52.29999924
C    17.52000046   2.69000006  52.11000061
C     7.63000011   1.10000002  53.55999756
H     7.12578440   0.63129300  52.71490479
H    11.92999935   2.50000000  51.14999771
H    13.78000069   0.09999999  55.01999664
H    11.35000038  -0.62000000  55.72999954
H     9.04999924  -0.34000003  55.50000000
H     9.63000011   1.90999997  51.91999817
H    18.00000000   3.00000000  51.18999863
H     7.05999947   0.93999994  54.47999954
H     7.65999985   2.17999983  53.39000320
S    19.26000023   1.12000000  55.34999847
C    21.77000046   1.80000007  54.36000061
C    20.39999962   1.87000012  54.22999954
C    19.79999924   2.53999996  53.11000061
C    20.65999985   3.05000019  52.15999985
C    22.07999992   3.02999997  52.21000290
C    22.95000076   3.51999998  51.19999695
C    24.28999901   3.53999996  51.49000168
C    24.84999847   2.99000001  52.67000198
C    24.01000023   2.47000003  53.62999725
C    22.60000038   2.47000003  53.43000031
C    18.36000061   2.27999997  53.15999985
C    17.89999962   1.59999990  54.31000137
C    16.59000015   1.13999999  54.38999939
C    26.28999901   3.32999992  53.01000214
H    26.60519218   2.72826910  53.86245346
H    22.26000023   1.26999998  55.17000198
H    20.31999969   3.25999999  51.14999771
H    22.46000099   3.84000015  50.27000046
H    24.92000198   4.05000019  50.77000046
H    24.44000053   2.10999990  54.55999756
H    16.26000023   0.48999998  55.20000076
H    26.54000092   4.32999992  53.36999893
H    26.88999939   3.12999988  52.11000061
