96

S    17.52000046   6.30999994  58.66000366
C    20.20999908   6.60000038  57.68000031
C    18.88000107   6.25000000  57.52999878
C    18.46999931   5.71000004  56.26999664
C    19.37999916   5.66999960  55.21999741
C    20.73999786   6.05999994  55.35999680
C    21.71999931   6.05000019  54.31999969
C    23.02999878   6.34999990  54.58000183
C    23.43000031   6.84999990  55.84000015
C    22.49000168   6.97000027  56.84000015
C    21.18999863   6.43000031  56.66999817
C    17.04000092   5.45000029  56.18999863
C    16.39999962   5.73000002  57.42000198
C    15.01000023   5.73000002  57.47000122
C    24.89999962   7.20000029  56.00000000
H    25.32617760   6.61755657  56.81684113
H    20.48999977   7.13000011  58.59000397
H    19.04000092   5.26999998  54.27000046
H    21.40000153   5.63000011  53.36999893
H    23.74000168   6.09000015  53.79000092
H    22.70000076   7.46999979  57.77999878
H    14.46000004   5.98000002  58.36999893
H    25.48000145   7.30999994  55.07999802
H    24.93000031   8.23999977  56.36000061
S    13.85000038   4.21999979  53.99000168
C    11.13999939   4.05999994  54.87999725
C    12.43999958   4.46000004  55.04000092
C    12.86000061   5.13000011  56.24000168
C    11.90999985   5.33999968  57.22000122
C    10.54999924   4.98000002  57.05999756
C     9.59999943   4.94000006  58.11999893
C     8.28999996   4.59000015  57.93000031
C     7.88000011   3.91999984  56.75000000
C     8.78999996   3.88999987  55.72000122
C    10.11999989   4.39000034  55.80999756
C    14.29999924   5.33999968  56.32999802
C    14.96999931   4.97000027  55.13000107
C    16.36000061   5.00000000  55.05000305
C     6.48000002   3.35999990  56.65000153
H     5.92579174   3.82183981  55.83289719
H    11.13000011   3.21000004  54.20000076
H    12.18999958   5.64000034  58.22000122
H     9.92999935   5.22000027  59.12000275
H     7.57000017   4.51999998  58.74000168
H     8.46000004   3.54999995  54.75000000
H    16.88999939   4.77999973  54.13000107
H     5.97000027   3.44000006  57.62000275
H     6.65000010   2.27999997  56.50000000
S    16.82999992   6.71999979  52.22000122
C    19.48999977   7.00999975  51.45999908
C    18.23999977   6.51999998  51.16000366
C    17.93000031   5.88000011  49.92000198
C    18.95000076   5.64000034  49.01000214
C    20.26000023   6.07999992  49.29000092
C    21.28999901   5.84999990  48.33000183
C    22.56000137   6.32000017  48.54999924
C    22.80999947   7.07000017  49.72999954
C    21.77999878   7.44999981  50.56000137
C    20.52000046   6.77999973  50.52000046
C    16.48999977   5.78999996  49.72999954
C    15.78999996   6.11999989  50.91999817
C    14.40999985   6.01999998  51.04999924
C    24.18999863   7.65999985  49.91000366
H    24.84712601   7.07429981  50.55284119
H    19.61000061   7.60999966  52.36000061
H    18.61999893   5.26999998  48.04000092
H    20.89999962   5.29999971  47.48000336
H    23.31999969   6.11000013  47.80000305
H    21.86000061   8.05000019  51.45999908
H    14.04999924   6.32000017  52.02999878
H    24.56999969   7.85000038  48.89999771
H    24.06999969   8.65999985  50.34999847
S    13.27999973   4.38000011  47.63000107
C    10.71000004   3.88000011  48.64999771
C    12.00000000   4.32999992  48.85000229
C    12.38000011   4.86999989  50.13000107
C    11.49000072   4.92999983  51.18000031
C    10.17000008   4.42000008  51.04999924
C     9.13999939   4.76000023  51.95999908
C     7.79999971   4.61999989  51.69000244
C     7.40999985   4.01999998  50.45999908
C     8.40999985   3.73000002  49.56999969
C     9.81000042   3.93000007  49.75000000
C    13.73999977   5.36000013  50.00999832
C    14.42000008   5.09000015  48.80000305
C    15.78999996   5.28999996  48.62999725
C     5.98000002   3.53999996  50.33000183
H     5.44497776   4.17489290  49.62377167
H    10.36999893   3.58000016  47.67000198
H    11.77000046   5.46000004  52.09000015
H     9.39000034   5.23999977  52.90000153
H     7.14999962   4.92999983  52.50999832
H     8.10999966   3.25999999  48.62999725
H    16.39000130   4.92000008  47.81000137
H     5.52999973   3.58999991  51.32999802
H     6.10000038   2.51999998  49.93999863
