96

S    17.78000069   6.32999992  58.70999908
C    20.48999977   6.38999987  57.94000244
C    19.19000053   6.05999994  57.65999603
C    18.81999969   5.40000010  56.44000244
C    19.85999870   5.07999992  55.58000183
C    21.14000130   5.65999985  55.70000076
C    22.23999977   5.40999985  54.82999802
C    23.54999924   5.78000021  55.02999878
C    23.85000038   6.43000031  56.25999832
C    22.86000061   6.58999968  57.19999695
C    21.52000046   6.19000006  56.97999954
C    17.38000107   5.32999992  56.27999878
C    16.68000031   5.86000013  57.39999771
C    15.29000092   5.80999947  57.39999771
C    25.29000092   6.76999998  56.56999969
H    25.74285316   6.09779644  57.29881287
H    20.81000137   6.93000031  58.82999802
H    19.64999962   4.48000002  54.69999695
H    22.09000015   4.69000006  54.02999878
H    24.30999947   5.40999985  54.34999847
H    23.02000046   7.09999990  58.15000153
H    14.81999969   6.21999979  58.27999878
H    25.84000015   6.94000006  55.63999939
H    25.22999954   7.78999996  56.97999954
S    14.32000065   3.84999990  54.09000015
C    11.56999969   3.74000025  54.78000259
C    12.82999992   4.23999977  54.97000122
C    13.15999985   5.00000000  56.13999939
C    12.18999958   5.32000017  57.08000183
C    10.88999939   4.81999969  56.86999893
C     9.84000015   5.00000000  57.81999969
C     8.55000019   4.63999987  57.51999664
C     8.26000023   3.76999998  56.43000031
C     9.25000000   3.47000003  55.52000046
C    10.55999947   4.00999975  55.73999786
C    14.57999992   5.14999962  56.38999939
C    15.34999943   4.55999994  55.34000015
C    16.72999954   4.69000006  55.22999573
C     6.94999981   3.01999998  56.40999603
H     6.22860527   3.50569129  55.75288391
H    11.36000061   3.22000003  53.85000229
H    12.50000000   5.61999989  58.08000183
H    10.06999969   5.36999989  58.81999969
H     7.76000023   4.65999985  58.27000046
H     9.06000042   2.75000000  54.73999786
H    17.22999954   4.44999981  54.29000092
H     6.63000011   3.16000009  57.44999695
H     7.04999971   1.98000002  56.07999802
S    14.27999973   2.00999999  51.05999756
C    11.72999954   1.19000006  51.83000183
C    13.09000015   1.19000006  52.09000015
C    13.68000031   0.69999999  53.29000092
C    12.77999973   0.29999998  54.26000214
C    11.38000011   0.23000000  54.06999969
C    10.47999954  -0.11000000  55.12000275
C     9.13000011  -0.04000000  54.91000366
C     8.61999989   0.32000002  53.62999725
C     9.44000053   0.67000002  52.57999802
C    10.84000015   0.69000000  52.81000137
C    15.11000061   0.92000002  53.31999969
C    15.57999992   1.70000005  52.22000122
C    16.92000008   2.07999992  52.15000153
C     7.13999987   0.64000005  53.54999924
H     6.66063786   0.06762737  52.75583267
H    11.36999989   1.58000004  50.89000320
H    13.22999954   0.05000000  55.21999741
H    10.93000031  -0.48000002  56.04000092
H     8.46000004  -0.22000000  55.73999786
H     9.18000031   0.97000003  51.56999969
H    17.17000008   2.79999995  51.37000275
H     6.76000023   0.34999999  54.54000092
H     6.94999981   1.71000004  53.40000153
S    18.45000076   0.73000002  55.61999893
C    21.01000023   1.42000008  54.95999908
C    19.68000031   1.50999999  54.61999893
C    19.18000031   1.92000008  53.34000015
C    20.09000015   2.48000002  52.45999908
C    21.45999908   2.51999998  52.80000305
C    22.46000099   3.03999996  51.93000031
C    23.81000137   3.00999999  52.19999695
C    24.26000214   2.36000013  53.39000320
C    23.34000015   1.89999998  54.29999924
C    21.94000053   1.89999998  54.00000000
C    17.73999977   1.76999998  53.23999786
C    17.23999977   1.05999994  54.36000061
C    15.93000031   0.61000001  54.40999985
C    25.73999786   2.13000011  53.56999969
H    25.98778343   2.29990935  54.61777496
H    21.31000137   0.97000003  55.90000153
H    19.76000023   3.00000000  51.56000137
H    22.18000031   3.40000010  50.94999695
H    24.56000137   3.24000001  51.45999908
H    23.68000031   1.53999996  55.26000214
H    15.62000084  -0.07000000  55.20000076
H    26.37000084   2.86000013  53.04000092
H    25.96999931   1.13000000  53.18000031
