96

S    18.04999924   6.01000023  58.68000031
C    20.62000084   6.37000036  57.67000198
C    19.36000061   5.84000015  57.50000000
C    18.90999985   5.36999989  56.22000122
C    19.77000046   5.35000038  55.13000107
C    21.09000015   5.82999992  55.26000214
C    22.15999985   5.66999960  54.33000183
C    23.47999954   5.96000004  54.61999893
C    23.78000069   6.71000004  55.79000092
C    22.73999977   7.00000000  56.63999939
C    21.44000053   6.43000031  56.52000046
C    17.48999977   5.05999994  56.25000000
C    16.87999916   5.42999983  57.47000122
C    15.50000000   5.52999973  57.63000107
C    25.17999840   7.04999971  56.25000000
H    25.40027618   6.64497566  57.23768997
H    20.98999977   6.63999987  58.64999771
H    19.40999985   4.88999987  54.20999908
H    21.81999969   4.94000006  53.60000229
H    24.23999977   5.61999989  53.92000198
H    22.95000076   7.42000008  57.62000275
H    15.10000038   5.92000008  58.55999756
H    25.79999924   6.63000011  55.45000076
H    25.38000107   8.11999989  56.11999893
S    14.14000034   4.32000017  54.08000183
C    11.51999950   4.09999990  55.02999878
C    12.79999924   4.56999969  55.21999741
C    13.20000076   5.03000021  56.51000214
C    12.23000050   5.18000031  57.48000336
C    10.88000107   4.84000015  57.23999786
C     9.84000015   5.01999950  58.20000076
C     8.56999969   4.51000023  58.04000092
C     8.26000023   3.84999990  56.81999969
C     9.21000004   3.63000011  55.84999847
C    10.48999977   4.21999979  56.00000000
C    14.65000057   5.18000031  56.58000183
C    15.26999950   4.76999998  55.37000275
C    16.64999962   4.67000008  55.20000076
C     6.85999966   3.31999993  56.63000107
H     6.27220964   3.85821724  55.88641357
H    11.32999992   3.63000011  54.06999969
H    12.46999931   5.61999989  58.43999863
H    10.03000069   5.51000023  59.15000153
H     7.86999989   4.59999990  58.87000275
H     8.98999977   2.96000004  55.01999664
H    17.14999962   4.50000000  54.26000214
H     6.23000050   3.40000010  57.51999664
H     6.88000011   2.23000002  56.51000214
S    17.47999954   6.67000008  52.36000061
C    20.15999985   7.04999971  51.52999878
C    18.89999962   6.53999996  51.30000305
C    18.53999901   5.88000011  50.08999634
C    19.52999878   5.64000034  49.15000153
C    20.86999893   6.02999973  49.38999939
C    21.96000099   5.68000031  48.54999924
C    23.28000069   5.95000029  48.82999802
C    23.52000046   6.76999998  49.95999908
C    22.53000069   7.11999989  50.84999847
C    21.18999863   6.69000053  50.61999893
C    17.10000038   5.84000015  49.88999939
C    16.38000107   6.28999996  51.03000259
C    14.98999977   6.28999996  51.11999893
C    24.93000031   7.31999969  50.11000061
H    25.47074699   6.94290066  50.97803879
H    20.51000214   7.53000021  52.43999863
H    19.32999992   4.97000027  48.31999969
H    21.77000046   5.13999987  47.63000107
H    24.04000092   5.96000004  48.06000137
H    22.62000084   7.82999992  51.66999817
H    14.61999989   6.44000006  52.12999725
H    25.50000000   6.98000002  49.23999786
H    24.80999947   8.40999985  50.10000229
S    13.89000034   4.42000008  47.85999680
C    11.26000023   4.11999989  48.85000229
C    12.53000069   4.61000013  49.00000000
C    12.82999992   5.44000053  50.12000275
C    11.90000057   5.66999960  51.11000061
C    10.57999992   5.17000008  50.97999954
C     9.64999962   5.12000036  52.04999924
C     8.39999962   4.56999969  51.88999939
C     7.97999954   3.96000004  50.68000031
C     8.93000031   3.88999987  49.68999863
C    10.24000072   4.44000006  49.78000259
C    14.22999954   5.86000013  50.02999878
C    14.96000099   5.33999968  48.94000244
C    16.35000038   5.35000038  48.81999969
C     6.54999971   3.58999991  50.34999847
H     6.17397261   4.20725203  49.53409195
H    11.06999969   3.44000006  48.02000046
H    12.18000031   6.30000019  51.95000076
H     9.96999931   5.53999996  53.00000000
H     7.72000027   4.48999977  52.72999573
H     8.78000069   3.28999996  48.80000305
H    16.77999878   4.88999987  47.93000031
H     5.88999987   3.79999995  51.19999695
H     6.43000031   2.56000018  50.00999832
