96

S    17.05000114   5.92999983  58.93000031
C    19.67000008   6.44000006  58.02000046
C    18.40999985   5.92000008  57.78999710
C    17.97999954   5.42999983  56.52000046
C    18.96000099   5.29999971  55.54000092
C    20.30999947   5.65999985  55.77000046
C    21.38000107   5.49000025  54.85000229
C    22.60000038   6.07999992  55.06000137
C    22.95999908   6.48999977  56.37000275
C    21.97000122   6.63999987  57.31999969
C    20.62000084   6.38999987  56.97000122
C    16.55999947   5.13999987  56.42000198
C    15.93999958   5.38000011  57.67000198
C    14.55999947   5.32000017  57.83000183
C    24.31999969   7.04999971  56.70000076
H    24.78094864   6.52522564  57.53680420
H    20.13000107   6.61000013  58.99000168
H    18.60999870   4.72000027  54.68999863
H    21.09999847   5.18000031  53.83999634
H    23.22999954   6.17999983  54.18000031
H    22.27999878   6.98000002  58.30999756
H    14.15999985   5.42999983  58.82999802
H    24.86000061   7.02000046  55.75000000
H    24.21999931   8.14000034  56.73999786
S    13.38000107   4.32999992  54.18000031
C    10.73999977   3.84999990  54.93999863
C    11.97999954   4.35999966  55.27000046
C    12.36999989   4.80999994  56.56999969
C    11.36999989   4.94999981  57.50999832
C    10.08999920   4.39000034  57.27000427
C     9.02999973   4.53999996  58.22000122
C     7.77999973   4.03999996  57.95999908
C     7.50000000   3.40999985  56.70999908
C     8.47999954   3.28999996  55.77000046
C     9.77000046   3.84999990  55.97999954
C    13.81000042   4.96000004  56.70000076
C    14.52000046   4.67000008  55.50000000
C    15.88000107   4.73000002  55.26000214
C     6.11999989   2.89999986  56.32999802
H     5.55874491   3.56071782  55.66928101
H    10.47999954   3.45999980  53.96999741
H    11.64999962   5.42000008  58.44999695
H     9.35999966   5.03999996  59.13000107
H     6.98000002   4.07999992  58.68999863
H     8.38999939   2.75000000  54.81999969
H    16.18000031   4.65999985  54.22000122
H     5.53999996   2.68000007  57.22999954
H     6.17999983   1.95999992  55.77000046
S    13.45000076   2.21000004  51.16000366
C    10.82999992   1.59999990  51.97999954
C    12.18999958   1.50000000  52.18000031
C    12.72999954   0.71999997  53.26000214
C    11.90999985   0.11000000  54.19000244
C    10.51000023   0.19999999  54.02999878
C     9.56999969  -0.22000000  55.01999664
C     8.23999977  -0.31000000  54.71000290
C     7.75000000   0.31000000  53.53000259
C     8.59000015   0.96000004  52.64999771
C    10.00000000   0.88000000  52.88000107
C    14.15999985   0.96000004  53.41999817
C    14.67000008   1.72999990  52.35000229
C    15.97000027   2.23000002  52.29999924
C     6.25999975   0.32000002  53.27999878
H     6.02527189   0.05682039  52.24862289
H    10.39999962   2.11999989  51.12999725
H    12.28999996  -0.16000001  55.17000198
H     9.98999977  -0.46000001  56.00000000
H     7.50000000  -0.85000002  55.30000305
H     8.28999996   1.50999999  51.76000214
H    16.28999901   2.61999989  51.33999634
H     5.73999977  -0.22000000  54.06999969
H     6.02999973   1.36000013  53.54000092
S    17.53000069   0.74000001  55.65000153
C    20.17999840   1.38000000  54.79999924
C    18.81000137   1.47000003  54.66999817
C    18.26000023   2.07999992  53.50000000
C    19.04999924   2.59000015  52.48000336
C    20.45999908   2.50999975  52.62000275
C    21.32999802   2.98000002  51.59999847
C    22.69000053   2.99000001  51.83000183
C    23.25000000   2.59999990  53.06999969
C    22.43999863   2.00000000  54.01000214
C    21.02000046   1.98000002  53.82999802
C    16.81999969   1.89999998  53.36000061
C    16.28999901   1.22000003  54.47999954
C    14.96999931   0.76999998  54.54999924
C    24.75000000   2.52999997  53.22999954
H    25.14099503   3.08450294  54.08308029
H    20.65999985   0.76999998  55.56000137
H    18.57999992   2.99000001  51.59000015
H    20.86000061   3.40999985  50.72000122
H    23.29000092   3.50000000  51.07999802
H    22.88000107   1.48000002  54.85000229
H    14.63000107   0.19999999  55.40999985
H    25.31999969   2.80999994  52.32999802
H    25.02000046   1.49000001  53.44999695
