96

S    16.55999947   5.64000034  58.76999664
C    19.22999954   6.05000019  57.95999908
C    17.98999977   5.50000000  57.74000168
C    17.60000038   4.88999987  56.50000000
C    18.54999924   4.81999969  55.48999786
C    19.79999924   5.44000053  55.68999863
C    20.73999786   5.46000004  54.61999893
C    21.98999786   6.01000023  54.75000000
C    22.39999962   6.51000023  56.02000427
C    21.47999954   6.67000008  57.02999878
C    20.17999840   6.10000038  56.90999985
C    16.15999985   4.74000025  56.32999802
C    15.46000004   5.00999975  57.52999878
C    14.07999992   5.01999950  57.67000198
C    23.85000038   6.88000011  56.19999695
H    24.37478447   6.25593233  56.92335129
H    19.40000153   6.56000042  58.90999603
H    18.39999962   4.18000031  54.61999893
H    20.36999893   5.09000015  53.66000366
H    22.67000008   5.80999947  53.93000031
H    21.86000061   6.90000010  58.02000046
H    13.59000015   5.33999968  58.59000397
H    24.33000183   6.86999989  55.21999741
H    23.80000114   7.94000053  56.47999573
S    12.92000008   4.21000004  53.90999603
C    10.26999950   3.79999995  54.65999985
C    11.54000092   4.13999987  55.02999878
C    11.96000004   4.48999977  56.36000061
C    10.98000050   4.65999985  57.31999969
C     9.61999989   4.41000032  56.97999954
C     8.60000038   4.41000032  57.95999908
C     7.28999996   4.09999990  57.68000031
C     6.94999981   3.71000004  56.36000061
C     7.90999985   3.65999985  55.37000275
C     9.26999950   3.96000004  55.65999985
C    13.40000057   4.65000010  56.50000000
C    14.04000092   4.44999981  55.26000214
C    15.43000031   4.53999996  55.15999603
C     5.55000019   3.22000003  56.09000397
H     5.12360525   3.72456694  55.22299957
H    10.06000042   3.50000000  53.62999725
H    11.23000050   4.75000000  58.36999893
H     8.89000034   4.48999977  59.01000214
H     6.51999998   4.05000019  58.44999695
H     7.76999998   3.38999987  54.33000183
H    15.95999908   4.50000000  54.20999908
H     4.88999987   3.30000019  56.95999908
H     5.52999973   2.13000011  55.93000031
S    12.98999977   2.21000004  50.72999954
C    10.43000031   1.49000001  51.53999710
C    11.78999996   1.36999989  51.73999786
C    12.32999992   0.74000001  52.90000153
C    11.44000053   0.20999999  53.81999969
C    10.03999901   0.31000000  53.61999893
C     9.10000038  -0.23000000  54.52999878
C     7.75000000  -0.14000000  54.27000046
C     7.17999983   0.45000002  53.11000061
C     8.09000015   0.99000001  52.22999954
C     9.48999977   0.90000004  52.43000031
C    13.73000050   1.08999991  53.06999969
C    14.22999954   1.75000000  51.90999985
C    15.57000065   2.09000015  51.77000046
C     5.68000031   0.57999998  52.91999817
H     5.39529991  -0.29545218  52.33636475
H    10.06000042   1.85000002  50.59000015
H    11.77999973  -0.46999997  54.59999847
H     9.44999981  -0.75000000  55.41999817
H     7.03000021  -0.32000002  55.06000137
H     7.73999977   1.42000008  51.29000092
H    15.97000027   2.63000011  50.91999817
H     5.23999977   0.48999998  53.92000198
H     5.53999996   1.52999997  52.39999771
S    17.29999924   0.75000000  55.06000137
C    19.88999939   1.36000013  54.20000076
C    18.53999901   1.36999989  53.95000076
C    17.88999939   2.00999999  52.84999847
C    18.73999977   2.54999995  51.88999939
C    20.12000084   2.71000004  52.18000031
C    21.01000023   3.25000000  51.20999908
C    22.36999893   3.19999981  51.38000107
C    22.92000008   2.72000027  52.60000229
C    22.11999893   2.20000005  53.60000229
C    20.72000122   2.15000010  53.36000061
C    16.46000099   1.79000008  52.81999969
C    15.95000076   1.13000000  53.96999741
C    14.63999939   0.67000002  54.03999710
C    24.40000153   2.82000017  52.85999680
H    24.68486977   3.05501771  53.88552856
H    20.25000000   0.96000004  55.13999939
H    18.37000084   2.86000013  50.91999817
H    20.61000061   3.54999995  50.24000168
H    22.98999977   3.54999995  50.56000137
H    22.52000046   1.65999997  54.45000076
H    14.44000053   0.07000000  54.92000198
H    24.97999954   3.50000000  52.22000122
H    24.67000008   1.76999998  52.70999908
