96

S    18.05999947   6.06999969  58.56999969
C    20.73999786   6.25999975  57.81999969
C    19.45999908   5.86999989  57.49000168
C    19.04000092   5.58000040  56.14999771
C    20.06000137   5.56999969  55.21999741
C    21.34000015   6.11999989  55.45000076
C    22.37999916   6.19000006  54.47999954
C    23.65999985   6.57000017  54.79999924
C    23.95000076   7.09999990  56.07999802
C    22.93999863   7.11999989  57.02000046
C    21.67000008   6.53999996  56.79000092
C    17.59000015   5.51999998  56.03000259
C    16.92000008   5.82999992  57.22999954
C    15.53999996   5.91000032  57.36000061
C    25.30999947   7.62000036  56.46999741
H    25.79610825   6.92658138  57.15626907
H    20.93000031   6.51000023  58.86000061
H    19.79999924   5.26999998  54.20000076
H    22.21999931   5.86999989  53.44999695
H    24.34000015   6.61999989  53.95000076
H    23.26999855   7.37999964  58.02999878
H    15.03000069   6.12999964  58.29000092
H    25.84000015   7.73999977  55.51000214
H    25.30999947   8.67000008  56.79000092
S    14.32000065   4.65000010  53.76999664
C    11.65999985   4.48000002  54.62999725
C    12.94999981   4.90999985  54.86999893
C    13.31999969   5.32000017  56.18999863
C    12.35999966   5.44000053  57.18000031
C    11.03000069   5.01999950  56.95999908
C    10.01000023   5.25000000  57.94000244
C     8.73999977   4.76999998  57.77000046
C     8.40999985   4.25000000  56.49000168
C     9.32999992   4.15999985  55.45999908
C    10.69000053   4.51999998  55.65999985
C    14.75999928   5.56999969  56.25000000
C    15.42000008   5.12000036  55.06999969
C    16.79999924   5.18000031  54.92000198
C     7.00999975   3.75999975  56.22000122
H     6.43952894   4.33760166  55.49264908
H    11.42000008   4.02999973  53.67000198
H    12.56000042   5.84999990  58.15999985
H    10.19999981   5.64000034  58.93000031
H     8.18000031   4.82999992  58.69999695
H     8.97999954   3.84999990  54.47999954
H    17.27000046   5.03999996  53.95000076
H     6.48999977   3.72000003  57.18999863
H     7.04999971   2.72000027  55.84999847
S    18.46999931   7.11999989  52.38999939
C    21.11999893   7.40000010  51.53999710
C    19.85999870   6.89000034  51.31000137
C    19.45000076   6.30000019  50.07999802
C    20.42000008   6.11999989  49.09999847
C    21.73999977   6.58999968  49.29999924
C    22.77000046   6.32999992  48.34999847
C    24.06999969   6.70000029  48.57999802
C    24.41999817   7.37999964  49.77000427
C    23.44000053   7.71000004  50.68000031
C    22.09000015   7.28999996  50.51000214
C    18.01000023   6.15999985  49.97000122
C    17.32999992   6.71999979  51.09000397
C    15.93999958   6.72999954  51.16000366
C    25.86999893   7.73999977  50.01999664
H    26.41836166   7.05632734  50.66806412
H    21.38000107   7.86999989  52.48000336
H    20.09000015   5.56999969  48.22000122
H    22.53999901   5.88999987  47.38999939
H    24.86000061   6.34000015  47.90999985
H    23.59000015   8.22000027  51.63000107
H    15.44000053   7.00999975  52.08000183
H    26.38999939   7.85000038  49.06999969
H    25.86999893   8.73999977  50.48999786
S    14.75000000   4.90999985  47.81000137
C    12.15999985   4.72000027  48.66000366
C    13.38000107   5.32000017  48.85000229
C    13.76999950   6.07999992  50.00000000
C    12.81000042   6.32000017  50.96000290
C    11.51999950   5.77000046  50.76000214
C    10.51000023   5.77000046  51.77000046
C     9.25000000   5.23999977  51.63000107
C     8.89000034   4.48999977  50.47999954
C     9.89000034   4.34999990  49.54000092
C    11.13000011   5.03999996  49.58000183
C    15.21999931   6.17999983  50.08999634
C    15.88999939   5.63000011  48.96999741
C    17.28000069   5.56999969  48.93000031
C     7.53999996   3.86000013  50.24000168
H     6.89406824   4.54142237  49.68634415
H    11.98999977   4.00000000  47.84999847
H    13.03999996   6.71000004  51.95000076
H    10.77999973   6.42000008  52.60000229
H     8.45000076   5.42000008  52.34000397
H     9.64999962   3.71000004  48.69999695
H    17.79999924   4.92999983  48.22999954
H     6.96000004   3.58999991  51.13999939
H     7.73000002   2.93000007  49.71000290
