96

S    18.13999939   6.60000038  58.61000061
C    20.79000092   6.86999989  57.77999878
C    19.51000023   6.44999981  57.50000000
C    19.07999992   5.77000046  56.31999969
C    20.05000114   5.52999973  55.37000275
C    21.40000153   5.86000013  55.59000015
C    22.43999863   5.55999994  54.65999985
C    23.75000000   5.88000011  54.91000366
C    24.07999992   6.58999968  56.09000397
C    23.09000015   7.03999996  56.93999863
C    21.75000000   6.60000038  56.77999878
C    17.65999985   5.45000029  56.24000168
C    17.01000023   5.91000032  57.42000198
C    15.62999916   6.03999996  57.54000092
C    25.51000214   7.07000017  56.18000031
H    25.90821648   6.97044659  57.18975830
H    21.17000198   7.44999981  58.61999893
H    19.77000046   5.13999987  54.38999939
H    22.13000107   4.94000006  53.81999969
H    24.48999786   5.71000004  54.13000107
H    23.26999855   7.57999992  57.85999680
H    15.11999989   6.39999962  58.43000031
H    26.14000130   6.63000011  55.40000153
H    25.50000000   8.14000034  55.93000031
S    14.37000084   4.50000000  54.03999710
C    11.80999947   4.07000017  55.10000229
C    13.07000065   4.59000015  55.25000000
C    13.47000027   5.23000002  56.46999741
C    12.48999977   5.51999998  57.39999771
C    11.18000031   4.98000002  57.29000092
C    10.14999962   5.05999994  58.27000046
C     8.88000011   4.59999990  58.02999878
C     8.52999973   3.98999977  56.79999924
C     9.51000023   3.74000025  55.86999893
C    10.80999947   4.28000021  56.09000397
C    14.88999939   5.53999996  56.46999741
C    15.50000000   5.13000011  55.25000000
C    16.88999939   5.03000021  55.14999771
C     7.16000032   3.35999990  56.62000275
H     6.61140299   3.92284608  55.86479187
H    11.59000015   3.68999982  54.10999680
H    12.76000023   6.14000034  58.25000000
H    10.46000004   5.51000023  59.20999908
H     8.10000038   4.75000000  58.76999664
H     9.31999969   3.02999997  55.06999969
H    17.35000038   4.90999985  54.18000031
H     6.61000013   3.30000019  57.56999969
H     7.39000034   2.36000013  56.22000122
S    14.39000034   2.46000004  51.23000336
C    11.89000034   1.67999995  52.15000153
C    13.26000023   1.58999991  52.28000259
C    13.89999962   0.82000005  53.30999756
C    13.09999943   0.11000000  54.19000244
C    11.69000053   0.16000001  54.10999680
C    10.77999973  -0.52999997  54.97000122
C     9.40999985  -0.50000000  54.85000229
C     8.82999992   0.32999998  53.87000275
C     9.67000008   1.08000004  53.06999969
C    11.09000015   0.97999996  53.09999847
C    15.34999943   0.96000004  53.29999924
C    15.70000076   1.86000001  52.27000427
C    16.97999954   2.36000013  52.09999847
C     7.35000038   0.64999998  53.83999634
H     6.78547668   0.05725062  53.12023163
H    11.49000072   2.30999994  51.36000061
H    13.56999969  -0.52999997  54.93000031
H    11.19999981  -1.03999996  55.84000015
H     8.78000069  -1.05999994  55.52999878
H     9.22000027   1.80999994  52.42000198
H    17.22999954   3.17999983  51.43000031
H     6.78999996   0.43000001  54.75999832
H     7.21000004   1.69000006  53.52000427
S    18.89000130   0.81000000  55.31000137
C    21.31000137   1.84000003  54.43000031
C    19.96000099   1.70000005  54.20999908
C    19.37000084   2.28999996  53.04999924
C    20.20999908   2.93000007  52.15000153
C    21.61999893   2.96000004  52.29000092
C    22.43999863   3.56999993  51.29000092
C    23.78999901   3.61000013  51.53999710
C    24.37000084   3.01999998  52.70000076
C    23.59999847   2.45000005  53.68000031
C    22.19000053   2.42000008  53.48999786
C    17.94999886   1.97000003  53.02999878
C    17.59000015   1.23000002  54.18000031
C    16.34000015   0.62000000  54.22999954
C    25.85000038   3.09999990  53.02000046
H    26.25551605   2.40991187  53.75988770
H    21.86000061   1.36000013  55.24000168
H    19.76000023   3.40999985  51.29000092
H    22.01000023   4.13000011  50.47000122
H    24.47999954   4.13000011  50.89000320
H    24.06999969   1.97000003  54.54000092
H    16.06999969   0.12000000  55.15999603
H    26.02000046   4.15999985  53.22999954
H    26.42999840   3.00999999  52.09000015
