96

S    17.71000099   6.56000042  58.86000061
C    20.34000015   6.89000034  57.91999817
C    19.05999947   6.44999981  57.70999908
C    18.72999954   5.66999960  56.55000305
C    19.70999908   5.32999992  55.63000107
C    21.01000023   5.86000013  55.80999756
C    22.10000038   5.40000010  55.01999664
C    23.38000107   5.82000017  55.25000000
C    23.74000168   6.67999983  56.32999802
C    22.70999908   7.04999971  57.16999817
C    21.37000084   6.60000038  56.98999786
C    17.28000069   5.51000023  56.58000183
C    16.53000069   5.92999983  57.70000076
C    15.14000034   5.97000027  57.77000046
C    25.15000153   7.18999958  56.51000214
H    25.66211128   6.54985952  57.22837830
H    20.52999878   7.27999973  58.92000198
H    19.55999947   4.72000027  54.73999786
H    21.90999985   4.69000006  54.22000122
H    24.13000107   5.42000008  54.58000183
H    22.98999977   7.63000011  58.04000092
H    14.63000107   6.26999950  58.68000031
H    25.71000099   7.21000004  55.56000137
H    25.17000008   8.23999977  56.84000015
S    14.11000061   4.57999992  54.22999954
C    11.42000008   4.25000000  54.98000336
C    12.71000004   4.61000013  55.31000137
C    12.96000004   5.22000027  56.58000183
C    11.90000057   5.52999973  57.41000366
C    10.59000015   5.07999992  57.15000153
C     9.57999992   5.27999973  58.15000153
C     8.31999969   4.80999994  57.88000107
C     8.07999992   4.11000013  56.65999985
C     9.03999996   3.97000027  55.68999863
C    10.32999992   4.55000019  55.84000015
C    14.39000034   5.51000023  56.68000031
C    15.14999962   5.21000004  55.52000046
C    16.53000069   5.05000019  55.50000000
C     6.75000000   3.47000003  56.33999634
H     6.12339258   4.07524586  55.68490982
H    11.16000080   3.65999985  54.09999847
H    12.15000057   6.15999985  58.27000046
H     9.88000011   5.75000000  59.08000183
H     7.51999950   5.03000021  58.56999969
H     8.82999992   3.40999985  54.79000092
H    17.11000061   4.80999994  54.61000061
H     6.15000010   3.12000012  57.18999863
H     7.00999975   2.54999995  55.80999756
S    14.85999966   2.32999992  51.16000366
C    12.35000038   1.50999999  51.86000061
C    13.69999981   1.38000000  52.09999847
C    14.21000004   0.81000000  53.30999756
C    13.32999992   0.12000000  54.12000275
C    11.94000053   0.13000000  53.86000061
C    11.03000069  -0.28000000  54.86999893
C     9.65999985  -0.14999999  54.71000290
C     9.18000031   0.46999997  53.54000092
C    10.01999950   0.97000003  52.56999969
C    11.43000031   0.87000000  52.74000168
C    15.55999947   1.31999993  53.50999832
C    16.06999969   2.06999993  52.43000031
C    17.36999893   2.56000018  52.38999939
C     7.71000004   0.82999998  53.48999786
H     7.18428946   0.53872776  52.58066559
H    11.97999954   2.03999996  50.98999786
H    13.75000000  -0.29999998  55.04000092
H    11.40999985  -0.52999997  55.84999847
H     8.92000008  -0.31000000  55.47999954
H     9.72999954   1.50999999  51.66999817
H    17.76000023   2.96999979  51.45999908
H     7.17000008   0.25999999  54.26000214
H     7.53999996   1.90999997  53.59000397
S    19.06999969   1.13999999  55.65000153
C    21.63999939   1.87999988  54.72000122
C    20.27000046   1.95999992  54.64000320
C    19.59000015   2.54999995  53.52000427
C    20.35000038   2.96000004  52.44999695
C    21.76000214   2.89000010  52.49000168
C    22.50000000   3.75999975  51.63000107
C    23.82999802   3.91000009  51.93000031
C    24.60000038   3.28000021  52.94000244
C    23.82999802   2.59000015  53.85000229
C    22.43999863   2.37000012  53.64999771
C    18.13999939   2.36000013  53.54999924
C    17.68000031   1.57000005  54.61999893
C    16.42000008   0.97999996  54.56999969
C    26.05999947   3.54999995  53.25000000
H    26.39443016   3.09460592  54.18213272
H    21.97999954   1.38000000  55.61999893
H    19.97999954   3.44000006  51.53999710
H    21.96000099   4.26999998  50.83000183
H    24.40000153   4.63999987  51.37000275
H    24.27999878   2.46000004  54.82999802
H    16.11999893   0.23000000  55.28999710
H    26.19999886   4.63999987  53.27000046
H    26.65999985   3.17999983  52.42000198
