96

S    16.73999977   5.95000029  59.02999878
C    19.40000153   6.50000000  58.16999817
C    18.12999916   6.02999973  57.94000244
C    17.84000015   5.38000011  56.69000244
C    18.78000069   5.26999998  55.68000031
C    20.06999969   5.79999971  55.87999725
C    21.14000130   5.71000004  54.93999863
C    22.42000198   6.10000038  55.24000168
C    22.70000076   6.69000053  56.50000000
C    21.73000145   6.72999954  57.48000336
C    20.40999985   6.28000021  57.18999863
C    16.43000031   5.01999950  56.63000107
C    15.65000057   5.38999987  57.75000000
C    14.26000023   5.47999954  57.74000168
C    24.03000069   7.35000038  56.76000214
H    24.68711090   6.62860489  57.24569321
H    19.62000084   6.96000004  59.13000107
H    18.45000076   4.88999987  54.71000290
H    20.86000061   5.22000027  54.01000214
H    23.23999786   6.17000008  54.52999878
H    22.01000023   7.17000008  58.43000031
H    13.73000050   5.84000015  58.61999893
H    24.43000031   7.69999981  55.79999924
H    23.92000008   8.28999996  57.32999802
S    13.27999973   4.15999985  54.15999985
C    10.52000046   4.21999979  54.68999863
C    11.79999924   4.61999989  55.01999664
C    12.10999966   5.14999962  56.31000137
C    11.13000011   5.15999985  57.28000259
C     9.81000042   4.72000027  57.02000046
C     8.80999947   4.69999981  58.02999878
C     7.68000031   3.93000007  57.84999847
C     7.48000050   3.30999994  56.59000015
C     8.28999996   3.53999996  55.50000000
C     9.52999973   4.19999981  55.70000076
C    13.53999996   5.18000031  56.58000183
C    14.30999947   4.65000010  55.51000214
C    15.70000076   4.57999992  55.52000046
C     6.28000021   2.38999987  56.49000168
H     5.47524261   2.81730485  55.89177322
H    10.29000092   3.73000002  53.75000000
H    11.40999985   5.36000013  58.30999756
H     9.07999992   5.05000019  59.02000046
H     6.90999985   3.82999992  58.61000061
H     8.03999996   3.01999998  54.58000183
H    16.18999863   4.03999996  54.71000290
H     6.01999998   2.36000013  57.56000137
H     6.54999971   1.38999999  56.13999939
S    16.81999969   6.37000036  52.78999710
C    19.45000076   6.83000040  52.04999924
C    18.20000076   6.37000036  51.68000031
C    17.90999985   5.78000021  50.40999985
C    18.95000076   5.65999985  49.51000214
C    20.27000046   5.97000027  49.91000366
C    21.35999870   5.91000032  48.99000168
C    22.59000015   6.44999981  49.26000214
C    22.86000061   6.90999985  50.58000183
C    21.86000061   7.00000000  51.52000046
C    20.53999901   6.60000038  51.18000031
C    16.46999931   5.65000010  50.20999908
C    15.78999996   5.91000032  51.43000031
C    14.40000057   5.92999983  51.46999741
C    24.20000076   7.53999996  50.86999893
H    24.78659439   6.94625282  51.57104874
H    19.64999962   7.31999969  53.00000000
H    18.68000031   5.13000011  48.60000229
H    21.07999992   5.61999989  47.97999954
H    23.42000008   6.39999962  48.55999756
H    21.97000122   7.36000013  52.54000092
H    13.89000034   6.15999985  52.41000366
H    24.70999908   7.55000019  49.88999939
H    24.17000008   8.60000038  51.12999725
S    13.30000019   4.78999996  47.80000305
C    10.64000034   4.42000008  48.50999832
C    11.87000084   4.94000006  48.83999634
C    12.20999908   5.40999985  50.14999771
C    11.14999962   5.44000053  51.04000092
C     9.85999966   4.96000004  50.68999863
C     8.80999947   4.90999985  51.65000153
C     7.59000015   4.32999992  51.40999603
C     7.26000023   3.93000007  50.07999802
C     8.19999981   4.05000019  49.08000183
C     9.52999973   4.46000004  49.38000107
C    13.63999939   5.59000015  50.34000015
C    14.34000015   5.27999973  49.15000153
C    15.72999954   5.31000042  49.08000183
C     5.92999983   3.30000019  49.73999786
H     5.44541979   3.84158945  48.92761612
H    10.52999973   3.67000008  47.71999741
H    11.33999920   5.73999977  52.05999756
H     8.98999977   5.13000011  52.70000076
H     6.94999981   4.19999981  52.27000427
H     8.09000015   3.61999989  48.09000015
H    16.15999985   5.18000031  48.09000015
H     5.29999971   3.28999996  50.63000107
H     6.15999985   2.24000001  49.54000092
