96

S    16.26000023   6.15999985  58.53000259
C    18.89999962   6.46000004  57.61000061
C    17.60000038   6.06999969  57.36999893
C    17.28000069   5.68000031  56.03000259
C    18.19000053   5.51999998  55.00000000
C    19.55000114   5.75999975  55.28999710
C    20.59999847   5.66999960  54.33000183
C    21.81999969   6.24000025  54.56999969
C    22.10000038   6.83000040  55.84000015
C    21.15999985   6.83000040  56.84999847
C    19.86999893   6.28999996  56.59000015
C    15.84000015   5.50000000  56.00999832
C    15.14000034   5.84000015  57.19999695
C    13.76000023   5.75999975  57.38999939
C    23.40999985   7.53000021  56.10000229
H    23.95826912   7.01733303  56.89036560
H    19.15999985   6.88000011  58.57999802
H    17.86999893   5.27999973  53.99000168
H    20.20000076   5.29999971  53.39000320
H    22.56999969   6.38000011  53.80000305
H    21.35000038   7.07000017  57.88999939
H    13.31999969   5.92999983  58.36000061
H    23.97000122   7.59999990  55.14999771
H    23.18000031   8.55000019  56.42000198
S    12.41000080   4.26000023  54.02999878
C     9.75000000   4.00000000  54.94999695
C    11.00999928   4.51999998  55.10000229
C    11.49000072   5.15999985  56.29000092
C    10.57000065   5.36000013  57.29999924
C     9.25000000   4.86000013  57.19999695
C     8.32999992   4.88000011  58.27999878
C     7.07999992   4.30999994  58.20999908
C     6.71000004   3.54999995  57.06999969
C     7.53000021   3.56999993  55.97000122
C     8.80999947   4.19000006  56.00000000
C    12.93000031   5.36000013  56.32999802
C    13.60999966   4.86999989  55.19000244
C    14.98999977   4.98000002  55.02999878
C     5.28999996   3.03999996  56.98999786
H     4.78655338   3.53635597  56.16037750
H     9.51000023   3.21000004  54.23999786
H    10.98999977   5.58000040  58.27999878
H     8.61999989   5.36999989  59.20000076
H     6.39999962   4.67999983  58.96999741
H     7.22000027   3.10999990  55.04000092
H    15.46000004   4.59000015  54.13000107
H     4.86000013   3.05999994  58.00000000
H     5.35000038   1.99000001  56.69000244
S    12.86000061   2.27999997  50.97000122
C    10.27999973   1.77999997  51.91999817
C    11.64000034   1.65000010  52.09000015
C    12.23000050   0.94999999  53.18000031
C    11.42000008   0.34999999  54.13000107
C    10.01999950   0.51999998  54.03999710
C     9.18000031  -0.22000000  54.92000198
C     7.81000042  -0.25000000  54.81999969
C     7.23999977   0.44000000  53.72000122
C     8.01999950   1.14999998  52.83000183
C     9.44000053   1.19000006  52.90999985
C    13.66000080   1.23000002  53.29999924
C    14.13000011   1.90999997  52.15000153
C    15.44000053   2.38999987  52.15000153
C     5.75999975   0.44000000  53.41999817
H     5.45342398  -0.48685777  52.93518448
H     9.84000015   2.22000003  51.03000259
H    11.92000008  -0.31000000  54.82999802
H     9.65999985  -0.78000003  55.72000122
H     7.18999958  -0.64000005  55.61999893
H     7.46999979   1.41000009  51.93000031
H    15.76000023   3.02999997  51.32999802
H     5.23000002   0.52999997  54.38000107
H     5.51000023   1.26999998  52.75000000
S    17.11000061   0.76999998  55.43000031
C    19.65999985   1.43000007  54.47000122
C    18.30000114   1.54999995  54.36999893
C    17.69000053   2.31999993  53.31999969
C    18.46999931   3.05999994  52.44999695
C    19.88000107   2.93000007  52.51999664
C    20.76999855   3.48000002  51.55000305
C    22.13999939   3.44000006  51.68000031
C    22.76000023   2.72000027  52.74000168
C    21.90999985   2.07999992  53.61000061
C    20.48999977   2.16000009  53.57999802
C    16.26000023   2.05999994  53.22999954
C    15.81999969   1.26999998  54.31999969
C    14.48999977   0.85000002  54.36000061
C    24.26000214   2.59000015  52.77000046
H    24.67873764   2.69645882  53.77071381
H    20.19000053   0.82999998  55.20999908
H    18.04999924   3.68999982  51.66999817
H    20.32999992   3.96000004  50.68000031
H    22.86000061   4.07000017  51.16000366
H    22.43000031   1.49000001  54.36000061
H    13.93000031   0.31000000  55.11000061
H    24.77000046   3.19000006  52.00000000
H    24.48999786   1.57000005  52.43000031
