96

S    17.75000000   6.28999996  59.03999710
C    20.42000008   6.44999981  58.40000153
C    19.18000031   6.00000000  58.02000046
C    18.89999962   5.44000053  56.72999954
C    19.90999985   5.40000010  55.77999878
C    21.21000099   5.78999996  56.17000198
C    22.29000092   5.77000046  55.24000168
C    23.52000046   6.34000015  55.52999878
C    23.77000046   6.80999994  56.84000015
C    22.78000069   6.80000019  57.80000305
C    21.50000000   6.25000000  57.50000000
C    17.46000099   5.32999992  56.56999969
C    16.72000122   5.75000000  57.70000076
C    15.34000015   5.92000008  57.67000198
C    25.13000107   7.35000038  57.25000000
H    25.74247169   6.62358141  57.78413010
H    20.58000183   7.07999992  59.27000046
H    19.69000053   5.05000019  54.77000427
H    22.09000015   5.36000013  54.26000214
H    24.23999977   6.44000006  54.72000122
H    22.95000076   7.13000011  58.81999969
H    14.84000015   6.30000019  58.55999756
H    25.62999916   7.69999981  56.33999634
H    24.89000130   8.27999973  57.76000214
S    14.37999916   4.35999966  54.09999847
C    11.69000053   4.21999979  54.87999725
C    12.97999954   4.61999989  55.14999771
C    13.22000027   5.14999962  56.45999908
C    12.25000000   5.19999981  57.44999695
C    10.90999985   4.97000027  57.05999756
C     9.89000034   5.09000015  58.04999924
C     8.60999966   4.67999983  57.76000214
C     8.30999947   4.03999996  56.52999878
C     9.26999950   3.98000002  55.54000092
C    10.60999966   4.35999966  55.79000092
C    14.63999939   5.46999979  56.53999710
C    15.36999893   5.03999996  55.40999985
C    16.76000023   5.03999996  55.38999939
C     6.97000027   3.37000012  56.31000137
H     6.42526436   3.87228870  55.51058197
H    11.43000031   3.84999990  53.88999939
H    12.56000042   5.38999987  58.47000122
H    10.15999985   5.32000017  59.06999969
H     7.88999987   4.76999998  58.56999969
H     8.97000027   3.63000011  54.54999924
H    17.26000023   4.75000000  54.47000122
H     6.32999992   3.31999993  57.19999695
H     7.09000015   2.30999994  56.06999969
S    18.26000023   6.67000008  52.58999634
C    20.92000008   6.89000034  51.73999786
C    19.61000061   6.63000011  51.43000031
C    19.15999985   6.17999983  50.14999771
C    20.09000015   6.00000000  49.13999939
C    21.45999908   6.25999975  49.40000153
C    22.43999863   6.09000015  48.37999725
C    23.69999886   6.52999973  48.70999908
C    24.11000061   7.02000046  49.98000336
C    23.18000031   7.25000000  50.97000122
C    21.87000084   6.76999998  50.68000031
C    17.76000023   5.79999971  50.13000107
C    17.12000084   6.06999969  51.37000275
C    15.73999977   6.00000000  51.52999878
C    25.55000114   7.36999989  50.26000214
H    25.99835587   6.71525955  51.00725937
H    21.28999901   7.32999992  52.65999603
H    19.68000031   5.59999990  48.22000122
H    22.11999893   5.68000031  47.42000198
H    24.37000084   6.63000011  47.85999680
H    23.40999985   7.57000017  51.97999954
H    15.26000023   6.28000021  52.45999908
H    26.04999924   7.23999977  49.29000092
H    25.55999947   8.42000008  50.56000137
S    14.51000023   4.50000000  48.06999969
C    11.90000057   4.11999989  48.92000198
C    13.14000034   4.65999985  49.18000031
C    13.53999996   5.19999981  50.45000076
C    12.55000019   5.42000008  51.38999939
C    11.21000099   5.09000015  51.07999802
C    10.21999931   5.44000053  52.04000092
C     8.90999985   5.09000015  51.81000137
C     8.52999973   4.50000000  50.56999969
C     9.48999977   4.18000031  49.64000320
C    10.86999989   4.48999977  49.81999969
C    14.96000099   5.50000000  50.47999954
C    15.62999916   5.15999985  49.27999878
C    17.00000000   5.25000000  49.08000183
C     7.18999958   3.82999992  50.40000153
H     6.59811115   4.23647785  49.57991409
H    11.59999943   3.68000007  47.97000122
H    12.75000000   5.92999983  52.32999802
H    10.65999985   5.89999962  52.93000031
H     8.22000027   5.32999992  52.61000061
H     9.21000004   3.63000011  48.74000168
H    17.42000008   4.88000011  48.15000153
H     6.70000029   3.88000011  51.38000107
H     7.32999992   2.75999999  50.20000076
