96

S    16.76000023   6.17999983  58.62999725
C    19.32999992   6.71000004  57.63999939
C    18.05999947   6.23000050  57.42000198
C    17.61999893   5.56999969  56.23000336
C    18.55999947   5.36999989  55.22999573
C    19.88999939   5.80999947  55.41999817
C    20.88000107   5.80999947  54.38999939
C    22.11999893   6.38999987  54.52000046
C    22.40999985   7.20000029  55.65000153
C    21.45999908   7.34000015  56.63000107
C    20.25000000   6.60000038  56.56000137
C    16.21000099   5.23000002  56.18999863
C    15.62000084   5.50000000  57.44999695
C    14.23999977   5.46999979  57.60000229
C    23.77000046   7.82999992  55.81999969
H    24.19730568   7.23177338  56.62475586
H    19.61000061   7.36999989  58.46000290
H    18.45999908   4.67000008  54.40000153
H    20.63999939   5.42999983  53.40000153
H    22.92000008   6.19999981  53.81000137
H    21.70999908   7.90000010  57.52999878
H    13.81000042   5.91000032  58.50000000
H    24.31999969   7.75000000  54.87999725
H    23.71999931   8.92000008  56.00000000
S    12.81000042   4.86999989  53.95000076
C    10.19999981   4.55000019  54.98000336
C    11.51999950   4.90000010  55.15999603
C    12.01000023   5.12000036  56.49000168
C    11.13000011   5.27999973  57.54000092
C     9.81000042   4.77999973  57.42000198
C     8.92000008   4.76000023  58.53000259
C     7.63999987   4.28999996  58.36999893
C     7.13000011   4.00999975  57.08000183
C     7.99000025   4.00000000  56.00999832
C     9.32999992   4.46000004  56.10000229
C    13.45999908   5.13999987  56.49000168
C    14.04999924   4.92000008  55.21999741
C    15.43000031   4.96000004  55.05000305
C     5.72000027   3.47000003  56.97999954
H     5.34386969   3.68290401  55.97935104
H     9.80000019   4.33999968  53.99000168
H    11.54999924   5.55999994  58.50000000
H     9.26999950   5.05999994  59.51000214
H     7.05999947   4.09000015  59.27000046
H     7.69999981   3.56999993  55.05000305
H    15.90000057   4.96000004  54.06999969
H     5.05999994   3.91999984  57.72999573
H     5.71000004   2.37000012  57.00000000
S    17.05000114   6.84999990  52.31999969
C    19.62000084   7.11000013  51.47999573
C    18.35000038   6.72999954  51.11999893
C    17.97999954   6.21000004  49.82999802
C    18.94000053   6.15000010  48.83999634
C    20.26000023   6.48999977  49.19000244
C    21.32999802   6.30000019  48.26000214
C    22.63000107   6.58999968  48.61000061
C    23.01000214   7.13999987  49.86000061
C    21.97999954   7.31999969  50.76000214
C    20.61000061   7.05999947  50.47000122
C    16.54999924   5.93999958  49.86999893
C    15.90999985   6.32999992  51.06999969
C    14.52000046   6.26999950  51.18999863
C    24.43000031   7.59000015  50.13000107
H    24.97185516   6.97684813  50.85009766
H    19.80999947   7.40999985  52.50999832
H    18.78000069   5.71000004  47.84999847
H    21.09000015   5.95000029  47.27000427
H    23.40999985   6.39999962  47.88000107
H    22.27999878   7.76000023  51.70000076
H    13.99000072   6.65000010  52.05999756
H    25.02000046   7.49000025  49.20999908
H    24.38999939   8.64000034  50.45000076
S    13.27000046   5.05000019  47.69000244
C    10.52999973   4.88000011  48.46000290
C    11.82999992   5.26000023  48.70999908
C    12.27000046   5.84999990  49.93999863
C    11.33999920   6.07999992  50.93999863
C    10.00000000   5.66999960  50.75000000
C     9.09000015   5.73999977  51.84000015
C     7.78999996   5.35000038  51.63000107
C     7.42000008   4.71000004  50.41999817
C     8.26000023   4.61000013  49.33000183
C     9.61000061   5.01999950  49.52000046
C    13.71999931   5.88000011  50.11000061
C    14.42999935   5.56999969  48.93000031
C    15.80999947   5.56999969  48.74000168
C     6.07999992   4.05000019  50.24000168
H     5.43208694   4.64807367  49.59920883
H    10.24000072   4.59000015  47.45999908
H    11.64000034   6.35999966  51.93999863
H     9.40999985   6.11000013  52.81000137
H     7.21000004   5.40999985  52.55000305
H     7.97999954   4.21999979  48.34999847
H    16.26000023   5.19999981  47.81999969
H     5.55000019   3.84999990  51.18999863
H     6.26999950   3.05999994  49.79999924
