96

S    16.82999992   6.32999992  58.63999939
C    19.51000023   6.60000038  57.78999710
C    18.20999908   6.19999981  57.54000092
C    17.79999924   5.56999969  56.31999969
C    18.73999977   5.38999987  55.33000183
C    20.10000038   5.75000000  55.50000000
C    21.09000015   5.66999960  54.47999954
C    22.34999847   6.21000004  54.59000015
C    22.65000153   6.86999989  55.80999756
C    21.71999931   6.97000027  56.81999969
C    20.43999863   6.34999990  56.76000214
C    16.35000038   5.38000011  56.25999832
C    15.67000008   5.66999960  57.47000122
C    14.29999924   5.60999966  57.67000198
C    23.97000122   7.57000017  55.97000122
H    24.61553574   7.05215263  56.67938232
H    19.70999908   7.18999958  58.68000031
H    18.45999908   4.94000006  54.36999893
H    20.81000137   5.13000011  53.57999802
H    23.01000214   6.15000010  53.74000168
H    21.91999817   7.49000025  57.76000214
H    13.78000069   5.78999996  58.60000229
H    24.51999855   7.64999962  55.01999664
H    23.82999802   8.60999966  56.31000137
S    13.03999996   4.25000000  54.12000275
C    10.36999893   4.11999989  54.94999695
C    11.67000008   4.44999981  55.22999573
C    12.10999966   4.97000027  56.49000168
C    11.25000000   5.12000036  57.56000137
C     9.90999985   4.73000002  57.29999924
C     8.92000008   4.82999992  58.31999969
C     7.63000011   4.38000011  58.18000031
C     7.23000002   3.81999993  56.93999863
C     8.10999966   3.81999993  55.87999725
C     9.44999981   4.26999998  56.02000427
C    13.52000046   5.31000042  56.53999710
C    14.15999985   4.88999987  55.34000015
C    15.53999996   4.94999981  55.20999908
C     5.79999971   3.32999992  56.84000015
H     5.20441103   3.64197516  55.98207092
H    10.06999969   3.86000013  53.94000244
H    11.50000000   5.46000004  58.56999969
H     9.13000011   5.31000042  59.27000046
H     6.76000023   4.59999990  58.79000092
H     7.69999981   3.51999998  54.91000366
H    16.06999969   4.55999994  54.34000015
H     5.26000023   3.60000014  57.76000214
H     5.78000021   2.24000001  56.86999893
S    13.53000069   2.36000013  51.00000000
C    11.00999928   1.38999999  51.77999878
C    12.38000011   1.36999989  51.91999817
C    12.96000004   0.87000000  53.13000107
C    12.10999966   0.23000000  54.01000214
C    10.70000076   0.19000000  53.88999939
C     9.89999962  -0.41999999  54.88999939
C     8.53999996  -0.34999999  54.75000000
C     7.96000004   0.46000001  53.75000000
C     8.71000004   1.05999994  52.76000214
C    10.11999989   0.88000000  52.76000214
C    14.34000015   1.31999993  53.29000092
C    14.81999969   2.09999990  52.19999695
C    16.15999985   2.44000006  52.18000031
C     6.44999981   0.59999996  53.73000336
H     5.92340660  -0.21835464  53.23898697
H    10.55999947   1.88999999  50.93999863
H    12.61999989  -0.17999999  54.87999725
H    10.34999943  -0.69000000  55.84999847
H     7.95000029  -0.79999995  55.54999924
H     8.26000023   1.77999997  52.09000015
H    16.59000015   3.15000010  51.47999573
H     6.11999989   0.61000001  54.78000259
H     6.23000050   1.57000005  53.27000046
S    17.79000092   0.62000000  55.31999969
C    20.39999962   1.44999993  54.72999954
C    19.04999924   1.51999998  54.45999908
C    18.52000046   2.13000011  53.27000046
C    19.40000153   2.59000015  52.31999969
C    20.79000092   2.63000011  52.62000275
C    21.73000145   3.16000009  51.70000076
C    23.09000015   3.14000010  51.90000153
C    23.57999992   2.56000018  53.09999847
C    22.70000076   1.98000002  53.96999741
C    21.28999901   2.14000010  53.87000275
C    17.06999969   2.01999998  53.15999985
C    16.54999924   1.18000007  54.18000031
C    15.19000053   0.90999997  54.31999969
C    25.06000137   2.36000013  53.33000183
H    25.33750153   2.79403806  54.29057693
H    20.81999969   0.81000000  55.51000214
H    19.04999924   2.93000007  51.35000229
H    21.32999802   3.54999995  50.77000046
H    23.77000046   3.58000016  51.17000198
H    23.18000031   1.35000002  54.72000122
H    14.89999962   0.28000000  55.14999771
H    25.68000031   2.63000011  52.47000122
H    25.22999954   1.28000009  53.39000320
