96

S    17.64999962   6.25000000  58.83999634
C    20.36999893   6.39999962  58.18000031
C    19.09000015   6.01000023  57.84000015
C    18.71999931   5.63000011  56.51000214
C    19.68000031   5.55999994  55.52000046
C    21.00000000   5.98000002  55.79000092
C    22.11000061   5.91000032  54.89999771
C    23.38000107   6.30999994  55.22999573
C    23.68999863   6.72999954  56.55000305
C    22.65000153   6.76999998  57.44999695
C    21.31000137   6.43000031  57.11999893
C    17.28999901   5.42000008  56.31999969
C    16.59000015   5.82000017  57.48000336
C    15.19999981   5.86999989  57.56999969
C    25.05000114   7.22000027  56.97999954
H    25.61790085   6.39654350  57.41302109
H    20.71000099   6.70000029  59.16999817
H    19.40000153   5.38000011  54.47999954
H    21.86000061   5.66999960  53.87000275
H    24.13999939   6.42000008  54.45999908
H    22.85000038   7.00000000  58.48999786
H    14.65000057   6.34000015  58.36999893
H    25.52999878   7.55000019  56.04999924
H    25.06000137   8.15999985  57.55000305
S    14.09000015   4.42999983  54.05000305
C    11.44999981   3.94000006  55.02999878
C    12.74000072   4.38000011  55.20000076
C    13.02000046   4.99000025  56.45999908
C    12.05000019   5.12000036  57.43999863
C    10.75000000   4.59000015  57.25000000
C     9.75000000   4.57999992  58.26000214
C     8.47000027   4.13000011  58.02000046
C     8.17000008   3.60000014  56.72999954
C     9.11000061   3.45000005  55.75000000
C    10.42000008   3.94000006  56.00999832
C    14.45000076   5.26000023  56.55000305
C    15.15999985   4.77999973  55.41999817
C    16.53000069   4.90999985  55.26000214
C     6.78999996   3.05000019  56.43000031
H     6.27214241   3.51820040  55.59291458
H    11.07999992   3.75000000  54.02000046
H    12.35000038   5.42000008  58.43000031
H     9.94999981   4.94999981  59.26000214
H     7.64999962   4.19999981  58.72000122
H     8.88000011   2.87999988  54.85000229
H    17.10000038   4.55000019  54.40999985
H     6.21999979   3.08999991  57.36000061
H     6.93000031   1.98000002  56.22000122
S    13.94999981   2.51999998  51.17000198
C    11.33999920   1.64000010  51.84000015
C    12.71000004   1.59999990  52.02999878
C    13.27000046   0.94999999  53.18000031
C    12.46000099   0.34999999  54.13000107
C    11.05999947   0.28999999  53.90999603
C    10.21000004  -0.48999998  54.75000000
C     8.85000038  -0.54000002  54.51000214
C     8.31999969   0.32000002  53.52000427
C     9.10000038   0.97000003  52.58999634
C    10.51000023   0.96000004  52.77000046
C    14.70000076   1.13999999  53.36999893
C    15.15999985   2.02999997  52.36999893
C    16.44000053   2.56999993  52.36000061
C     6.80999994   0.38000000  53.44999695
H     6.39900255  -0.01682550  52.52171326
H    10.93999958   2.25000000  51.04000092
H    12.93000031  -0.16000001  54.95999908
H    10.60999966  -1.08000004  55.56000137
H     8.22000027  -1.12000000  55.18000031
H     8.64999962   1.51999998  51.77000046
H    16.76000023   3.17000008  51.51000214
H     6.47000027  -0.17000002  54.34000015
H     6.44000006   1.39999998  53.61000061
S    18.04000092   0.90999997  55.61999893
C    20.61000061   1.65999997  54.79000092
C    19.23999977   1.80999994  54.68000031
C    18.72999954   2.43000007  53.50000000
C    19.56999969   3.12999988  52.64999771
C    20.95999908   3.17000008  52.88000107
C    21.90999985   3.82999992  52.04999924
C    23.25000000   3.55999994  52.15999985
C    23.75999832   2.59999990  53.06999969
C    22.88000107   1.94999993  53.89999771
C    21.48999977   2.25000000  53.85000229
C    17.29999924   2.19000006  53.40000153
C    16.84000015   1.25999999  54.36000061
C    15.53999996   0.76999998  54.43000031
C    25.23999977   2.28999996  53.18000031
H    25.65821457   2.62315440  54.12984467
H    21.05999947   0.97999996  55.51000214
H    19.18000031   3.63999987  51.76000214
H    21.56999969   4.34999990  51.14999771
H    23.94000053   3.91999984  51.39999771
H    23.12000084   1.25999999  54.71000290
H    15.14999962   0.13000000  55.22999573
H    25.69999886   2.79999995  52.32999802
H    25.40999985   1.21000004  53.09999847
