96

S    17.19000053   6.01999998  58.37999725
C    19.73999977   6.32999992  57.35000229
C    18.45999908   5.84999990  57.15999985
C    18.06999969   5.21000004  55.93999863
C    19.06999969   4.97000027  55.00999832
C    20.34000015   5.56999969  55.14999771
C    21.32999802   5.55999994  54.13000107
C    22.55000114   6.17999983  54.27000046
C    22.95999908   6.76999998  55.50000000
C    21.97999954   6.94999981  56.45000076
C    20.69000053   6.37000036  56.30000305
C    16.61999893   5.07999992  55.97000122
C    15.98999977   5.56999969  57.15000153
C    14.61999989   5.64000034  57.31999969
C    24.36000061   7.26999998  55.75000000
H    24.86443901   6.81529379  56.60257339
H    20.03000069   6.78999996  58.29000092
H    18.89999962   4.46999979  54.06000137
H    21.12999916   5.03999996  53.20000076
H    23.26000023   6.28000021  53.44999695
H    22.34999847   7.44999981  57.35000229
H    14.11000061   5.95000029  58.22999954
H    24.80999947   7.00000000  54.79000092
H    24.40999985   8.36000061  55.87999725
S    13.19000053   4.21000004  53.94000244
C    10.57999992   4.01999998  54.98000336
C    11.92000008   4.28000021  55.17000198
C    12.36999989   4.86999989  56.39999771
C    11.49000072   5.15999985  57.42000198
C    10.15999985   4.69999981  57.28000259
C     9.17000008   4.92999983  58.29000092
C     7.83999968   4.67999983  58.09000015
C     7.39000034   4.13000011  56.84999847
C     8.27000046   3.88999987  55.83000183
C     9.63999939   4.21999979  56.03000259
C    13.81000042   5.07000017  56.31999969
C    14.44000053   4.61999989  55.13999939
C    15.81999969   4.56999969  54.94999695
C     5.98000002   3.60000014  56.81000137
H     5.47322941   4.07108259  55.96776199
H    10.24000072   3.63999987  54.02000046
H    11.85999966   5.77000046  58.23999786
H     9.46000004   5.53999996  59.13999939
H     7.07000017   4.97000027  58.80000305
H     7.90000010   3.51999998  54.87999725
H    16.26000023   4.21999979  54.02000046
H     5.59999990   3.93000007  57.78999710
H     5.88999987   2.50999975  56.76000214
S    17.32999992   6.61999989  52.43000031
C    19.95000076   7.05999947  51.55000305
C    18.68000031   6.60000038  51.26999664
C    18.38000107   5.88000011  50.07999802
C    19.40999985   5.63000011  49.19000244
C    20.69999886   6.12999964  49.47000122
C    21.77000046   6.01000023  48.54000092
C    23.02000046   6.56000042  48.74000168
C    23.31000137   7.20000029  49.97000122
C    22.32999992   7.40999985  50.90999985
C    21.02000046   6.91999960  50.63000107
C    16.95000076   5.66999960  49.92000198
C    16.28000069   6.11999989  51.09000397
C    14.88999939   6.14000034  51.16000366
C    24.67000008   7.86000013  50.06000137
H    25.28226089   7.24773741  50.72209549
H    20.09000015   7.67000008  52.43999863
H    19.34999847   5.09000015  48.23999786
H    21.60000038   5.42999983  47.63999939
H    23.69999886   6.50000000  47.90000153
H    22.50999832   7.95000029  51.83000183
H    14.28999996   6.40999985  52.02000046
H    25.22000122   7.82999992  49.10999680
H    24.54000092   8.86999989  50.47999954
S    13.60999966   4.92000008  47.62000275
C    10.93000031   4.81999969  48.50999832
C    12.23999977   5.19999981  48.70999908
C    12.68000031   5.75000000  49.95999908
C    11.78999996   5.78000021  51.02000427
C    10.40999985   5.46999979  50.89000320
C     9.43000031   5.56999969  51.91999817
C     8.10999966   5.31000042  51.63999939
C     7.72000027   4.80999994  50.37000275
C     8.67999935   4.56999969  49.41999817
C    10.03999901   4.92999983  49.61000061
C    14.13000011   5.75000000  50.05000305
C    14.80000019   5.36999989  48.86000061
C    16.18000031   5.23999977  48.82999802
C     6.25999975   4.46999979  50.13999939
H     5.95334530   4.56984091  49.09880066
H    10.59999943   4.34999990  47.58999634
H    12.15999985   6.05999994  52.00000000
H     9.81999969   5.79999971  52.90999985
H     7.46000004   5.19000006  52.50999832
H     8.52000046   4.15000010  48.43000031
H    16.72999954   5.00999975  47.91999817
H     5.65999985   5.12000036  50.79000092
H     6.09000015   3.45000005  50.51000214
