96

S    16.97000122   6.46000004  58.59000397
C    19.55999947   6.74000025  57.70000076
C    18.30999947   6.24000025  57.44999695
C    17.94999886   5.55999994  56.24000168
C    18.89999962   5.38999987  55.24000168
C    20.19000053   5.91000032  55.47999954
C    21.21000099   5.79999971  54.50000000
C    22.52000046   6.17000008  54.72999954
C    22.93999863   6.56000042  56.03000259
C    21.94999886   6.80000019  56.95999908
C    20.58000183   6.52999973  56.72999954
C    16.51000023   5.35000038  56.18000031
C    15.88000107   5.78000021  57.36999893
C    14.50000000   5.73999977  57.56999969
C    24.37999916   6.93000031  56.35000229
H    24.86511993   6.33073616  57.12048340
H    19.81999969   7.22000027  58.63999939
H    18.79999924   4.77999973  54.34999847
H    20.95999908   5.29999971  53.56999969
H    23.26999855   6.06999969  53.95999908
H    22.25000000   7.42999983  57.80000305
H    14.06000042   6.23000050  58.43000031
H    24.99000168   6.84999990  55.44000244
H    24.43000031   7.96000004  56.70000076
S    13.12999916   4.21000004  54.10999680
C    10.54999924   4.05999994  55.02999878
C    11.79999924   4.59999990  55.20999908
C    12.25999928   5.19000006  56.44000244
C    11.33999920   5.50000000  57.42000198
C    10.05000019   4.94000006  57.29000092
C     9.18000031   4.86000013  58.41999817
C     7.90999985   4.33999968  58.29000092
C     7.53000021   3.61999989  57.11999893
C     8.46000004   3.45000005  56.12999725
C     9.63999939   4.25000000  56.10000229
C    13.71000099   5.27999973  56.51000214
C    14.29999924   4.79999971  55.31000137
C    15.67000008   4.88999987  55.15999603
C     6.17999983   2.94000006  57.04000092
H     5.44389391   3.49029255  56.45397568
H    10.36999893   3.30999994  54.25000000
H    11.68000031   5.95000029  58.34999847
H     9.59999943   5.28999996  59.31999969
H     7.30999994   4.11000013  59.15999985
H     8.30000019   2.99000001  55.15999603
H    16.13000107   4.61999989  54.20999908
H     5.78000021   2.82000017  58.04999924
H     6.25999975   1.93000007  56.60999680
S    13.38000107   2.23000002  51.26999664
C    10.88999939   1.08000004  51.83000183
C    12.23999977   1.14999998  52.09000015
C    12.84000015   0.56000000  53.23999786
C    12.05999947  -0.08000001  54.19000244
C    10.65000057   0.01000000  54.06000137
C     9.77000046  -0.41999999  55.10000229
C     8.39999962  -0.34999999  54.97000122
C     7.86999989   0.22000000  53.79000092
C     8.65999985   0.63000000  52.74000168
C    10.06999969   0.56000000  52.87000275
C    14.22999954   0.93999994  53.46000290
C    14.67000008   1.80000007  52.42000198
C    16.02000046   2.10999990  52.36999893
C     6.37000036   0.41999999  53.68000031
H     5.89294434  -0.21370062  52.93237686
H    10.44999981   1.52999997  50.93999863
H    12.44999981  -0.17000002  55.19000244
H    10.17000008  -0.94999999  55.96000290
H     7.79999971  -0.85000002  55.72999954
H     8.28999996   1.15999997  51.86999893
H    16.36000061   2.61999989  51.46999741
H     5.86000013   0.23000000  54.62999725
H     6.17999983   1.44999993  53.36000061
S    17.70000076   0.48999998  55.59999847
C    20.29999924   1.14999998  54.72000122
C    18.93000031   1.29999995  54.61999893
C    18.35000038   1.93000007  53.47999954
C    19.18000031   2.39999986  52.47000122
C    20.58000183   2.45000005  52.63999939
C    21.56999969   3.05000019  51.81000137
C    22.93000031   2.98000002  51.97000122
C    23.45000076   2.44000006  53.18000031
C    22.53000069   1.95999992  54.09000015
C    21.14000130   1.84000003  53.81999969
C    16.90999985   1.75999999  53.39000320
C    16.43000031   0.94999999  54.45000076
C    15.08999920   0.57999998  54.51000214
C    24.90999985   2.52999997  53.53000259
H    25.20040321   3.52162051  53.87706757
H    20.69000053   0.59999996  55.56999969
H    18.78000069   2.69000006  51.51000214
H    21.28999901   3.53999996  50.87999725
H    23.57000160   3.45999980  51.24000168
H    22.92000008   1.76999998  55.08999634
H    14.65999985   0.07000000  55.37000275
H    25.58000183   2.24000001  52.70999908
H    25.06999969   1.72000003  54.25000000
