96

S    16.68000031   6.15999985  58.47000122
C    19.29999924   6.44000006  57.56000137
C    18.05999947   5.86999989  57.39999771
C    17.67000008   5.27999973  56.14999771
C    18.61999893   5.17000008  55.14999771
C    19.92000008   5.71000004  55.27000046
C    21.04000092   5.63000011  54.38000107
C    22.32000160   6.01999998  54.66999817
C    22.60000038   6.71999979  55.86999893
C    21.53000069   6.94000006  56.70000076
C    20.22000122   6.40999985  56.49000168
C    16.22999954   5.09000015  56.10000229
C    15.53999996   5.59000015  57.22999954
C    14.15999985   5.55999994  57.29999924
C    24.01000023   7.18999958  56.14999771
H    24.47266769   6.76292229  57.03974152
H    19.52000046   6.98000002  58.47999954
H    18.34000015   4.65000010  54.23999786
H    20.97999954   5.12000036  53.43000031
H    23.08000183   5.96000004  53.88999939
H    21.73999977   7.50000000  57.61000061
H    13.60999966   5.92000008  58.16999817
H    24.72999954   6.83000040  55.40999985
H    24.07999992   8.27999973  56.19999695
S    12.96000004   3.91999984  53.89999771
C    10.31000042   3.79999995  54.75999832
C    11.59999943   4.21999979  55.00000000
C    11.95000076   4.92000008  56.20999908
C    10.95000076   5.09999990  57.14000320
C     9.61999989   4.63000011  57.04000092
C     8.71000004   4.67000008  58.13000107
C     7.48000050   4.09000015  57.98999786
C     7.09999990   3.61000013  56.70999908
C     7.99000025   3.55999994  55.65999985
C     9.34000015   3.98999977  55.77999878
C    13.40000057   5.05000019  56.24000168
C    14.09999943   4.57999992  55.10000229
C    15.48999977   4.56999969  55.02999878
C     5.66999960   3.19999981  56.44000244
H     5.28743744   3.44087267  55.44817352
H    10.00000000   3.37000012  53.81000137
H    11.28000069   5.51999998  58.09000015
H     9.19999981   5.10999966  59.00000000
H     6.77999973   4.15000010  58.81999969
H     7.57999992   3.03999996  54.79000092
H    16.00000000   4.19000006  54.15000153
H     5.00999975   3.76999998  57.11999893
H     5.69999981   2.13000011  56.66999817
S    16.90999985   6.60000038  52.49000168
C    19.51000023   7.03999996  51.65999985
C    18.30000114   6.44000006  51.39999771
C    18.01000023   5.75000000  50.17000198
C    19.00000000   5.55999994  49.22000122
C    20.29000092   6.01999998  49.54999924
C    21.40000153   5.82000017  48.68000031
C    22.67000008   6.28999996  48.93000031
C    22.86000061   7.14999962  50.04000092
C    21.81999969   7.44999981  50.89000320
C    20.55000114   6.83000040  50.70999908
C    16.60000038   5.38000011  50.17000198
C    15.90000057   5.68000031  51.36000061
C    14.52000046   5.58000040  51.44000244
C    24.20999908   7.75000000  50.34999847
H    24.82966995   7.13032818  50.99816132
H    19.56999969   7.69000006  52.51999664
H    18.72999954   5.17000008  48.23999786
H    21.01000023   5.42000008  47.75000000
H    23.44000053   6.24000025  48.16999817
H    21.70999908   8.30000019  51.56000137
H    13.90999985   5.88999987  52.28000259
H    24.70999908   8.13000011  49.45000076
H    23.98999977   8.71999931  50.80999756
S    13.45000076   4.36999989  47.81000137
C    10.72999954   4.39000034  48.43999863
C    12.02000046   4.71000004  48.79000092
C    12.34000015   5.18000031  50.11000061
C    11.32999992   5.32999992  51.04999924
C    10.03000069   4.88999987  50.72000122
C     9.02999973   4.72000027  51.72999954
C     7.81000042   4.17000008  51.38999939
C     7.57000017   3.56999993  50.13000107
C     8.48999977   3.71000004  49.10999680
C     9.68999958   4.40000010  49.40999985
C    13.78000069   5.19999981  50.31000137
C    14.51000023   4.81999969  49.15000153
C    15.90000057   4.81999969  49.09000015
C     6.17000008   3.07999992  49.84000397
H     5.67092371   3.62898350  49.04148102
H    10.62000084   3.81000018  47.51999664
H    11.56999969   5.50000000  52.09000015
H     9.30999947   5.17000008  52.68000031
H     6.98999977   4.15999985  52.09000015
H     8.23000050   3.40000010  48.09999847
H    16.36999893   4.55000019  48.15000153
H     5.65000010   3.19999981  50.79999924
H     6.34999990   2.00999999  49.68999863
