96

S    17.94999886   6.37000036  58.77999878
C    20.58000183   6.80000019  57.97000122
C    19.34999847   6.25000000  57.70000076
C    18.98999977   5.61999989  56.45999908
C    19.97999954   5.51999998  55.50000000
C    21.28999901   6.00000000  55.76000214
C    22.37999916   5.84999990  54.86000061
C    23.62999916   6.38999987  55.00999832
C    23.90000153   6.97000027  56.27999878
C    22.95999908   7.02000046  57.28000259
C    21.61999893   6.61999989  57.02000046
C    17.54999924   5.45000029  56.36000061
C    16.81999969   5.82000017  57.51999664
C    15.44000053   5.92999983  57.63000107
C    25.28000069   7.42999983  56.65999985
H    25.72808838   6.78276205  57.41392517
H    20.85000038   7.36000013  58.86000061
H    19.76000023   4.90999985  54.62999725
H    22.17000008   5.13000011  54.06999969
H    24.38999939   6.14000034  54.27999878
H    23.12999916   7.51999950  58.22999954
H    14.98000050   6.21999979  58.56999969
H    25.88999939   7.46000004  55.75000000
H    25.17000008   8.46000004  57.02000046
S    14.32000065   4.44999981  54.08000183
C    11.69000053   4.15000010  54.93000031
C    12.96000004   4.59000015  55.20999908
C    13.28999996   5.22000027  56.45000076
C    12.28000069   5.38999987  57.37999725
C    10.95000076   4.98000002  57.11999893
C     9.90999985   5.13000011  58.09000015
C     8.60000038   4.92000008  57.75000000
C     8.32999992   4.28999996  56.50000000
C     9.30000019   3.97000027  55.56999969
C    10.62999916   4.40000010  55.84999847
C    14.73000050   5.47999954  56.51000214
C    15.39999962   5.09000015  55.33000183
C    16.79000092   5.13000011  55.22999573
C     6.94999981   3.68000007  56.38000107
H     6.37933350   4.07233334  55.53826904
H    11.51999950   3.60000014  54.01000214
H    12.51000023   5.82000017  58.34000015
H    10.10000038   5.25000000  59.15999985
H     7.86000013   4.84000015  58.54000092
H     9.13999939   3.40999985  54.65000153
H    17.28000069   4.79999971  54.31999969
H     6.39999962   3.84000015  57.31999969
H     6.96000004   2.59000015  56.25000000
S    14.63999939   2.31999993  51.17000198
C    12.10000038   1.76999998  51.91999817
C    13.42000008   1.49000001  52.16999817
C    13.97999954   0.96000004  53.37999725
C    13.02999973   0.41999999  54.22000122
C    11.64000034   0.48999998  54.00000000
C    10.73999977   0.08000001  55.01999664
C     9.38000011   0.08000001  54.78000259
C     8.93000031   0.71999997  53.60000229
C     9.77000046   1.19000006  52.62000275
C    11.18000031   1.14999998  52.80000305
C    15.39999962   1.28999996  53.47999954
C    15.90999985   2.00999999  52.36999893
C    17.20000076   2.50000000  52.16999817
C     7.44000006   0.99000001  53.48999786
H     6.97718525   0.19965506  52.89901733
H    11.77999973   2.30999994  51.03000259
H    13.38999939   0.16000001  55.20999908
H    11.17000008  -0.24000001  55.97000122
H     8.69000053  -0.14000000  55.59000015
H     9.47000027   1.65000010  51.68000031
H    17.64999962   2.84999990  51.25000000
H     6.97000027   1.01999998  54.47000122
H     7.31999969   2.00999999  53.09999847
S    18.82999992   1.29999995  55.59999847
C    21.42000008   2.00999999  54.75000000
C    20.06999969   1.94999993  54.51000214
C    19.50000000   2.33999991  53.26000214
C    20.26000023   2.76999998  52.18000031
C    21.64999962   2.75000000  52.42000198
C    22.49000168   3.24000001  51.37000275
C    23.84000015   3.33999991  51.58000183
C    24.47000122   3.16000009  52.84000015
C    23.62999916   2.76999998  53.86000061
C    22.26000023   2.45000005  53.68999863
C    18.04999924   2.25999999  53.26000214
C    17.56000137   1.56000006  54.38999939
C    16.28000069   1.03999996  54.54000092
C    25.88999939   3.56999993  53.15000153
H    26.40860367   2.83116508  53.76096344
H    21.81999969   1.53999996  55.63999939
H    19.81999969   3.10999990  51.25000000
H    21.96000099   3.58000016  50.47999954
H    24.47000122   3.76999998  50.79999924
H    23.94000053   2.76999998  54.89999771
H    15.93000031   0.52999997  55.43000031
H    25.81999969   4.48000002  53.75999832
H    26.40999985   3.84000015  52.22999954
