96

S    18.09000015   6.46000004  58.59000397
C    20.72999954   6.80000019  57.62000275
C    19.45000076   6.30999994  57.45999908
C    19.09000015   5.72000027  56.20999908
C    20.00000000   5.68000031  55.17000198
C    21.35000038   6.06999969  55.34000015
C    22.34000015   5.88000011  54.34000015
C    23.64999962   6.14000034  54.68999863
C    24.03000069   6.65999985  55.96000290
C    23.06999969   6.90999985  56.91999817
C    21.71999931   6.60000038  56.63000107
C    17.65999985   5.46999979  56.18999863
C    16.95999908   5.96000004  57.31999969
C    15.57999992   6.11999989  57.43000031
C    25.48000145   6.98999977  56.23000336
H    25.91308022   6.52852201  57.11746216
H    21.01000023   7.50000000  58.40999985
H    19.52999878   5.31000042  54.26000214
H    22.04999924   5.46999979  53.37999725
H    24.43000031   5.78999996  54.02999878
H    23.34000015   7.37999964  57.87000275
H    15.14000034   6.34999990  58.39000320
H    26.09000015   6.63000011  55.40000153
H    25.56999969   8.07999992  56.16000366
S    14.37999916   4.59000015  53.93000031
C    11.65999985   4.59999990  54.77000427
C    12.97999954   4.94999981  54.95999908
C    13.40000057   5.56999969  56.17000198
C    12.50000000   5.72000027  57.21000290
C    11.11999989   5.44000053  57.02999878
C    10.19000053   5.59000015  58.09999847
C     8.85999966   5.25000000  57.95000076
C     8.45000076   4.55000019  56.77999878
C     9.39999962   4.26000023  55.83000183
C    10.71000004   4.81999969  55.79999924
C    14.84000015   5.72000027  56.31000137
C    15.48999977   5.26000023  55.13000107
C    16.87000084   5.09000015  55.08999634
C     7.07999992   3.94000006  56.59999847
H     6.65251160   4.24636650  55.64527512
H    11.35000038   3.91000009  53.99000168
H    12.89000034   6.00000000  58.18000031
H    10.50000000   6.03999996  59.02999878
H     8.14000034   5.61999989  58.68000031
H     9.17000008   3.70000005  54.93000031
H    17.25000000   4.72000027  54.13999939
H     6.38999987   4.30000019  57.37999725
H     7.14999962   2.84999990  56.66999817
S    14.25000000   2.17999983  50.94999695
C    11.56000042   1.72000003  51.77000046
C    12.90999985   1.58000004  51.95000076
C    13.45999908   1.13000000  53.20000076
C    12.51999950   0.82999998  54.16999817
C    11.10999966   0.86000001  54.05000305
C    10.24000072   0.56999999  55.13999939
C     8.89000034   0.50000000  54.88999939
C     8.38999939   0.90000004  53.62999725
C     9.21000004   1.35000002  52.63000107
C    10.62999916   1.35000002  52.77999878
C    14.89999962   1.29999995  53.34000015
C    15.47000027   1.94000006  52.21000290
C    16.76000023   2.46000004  52.25000000
C     6.93000031   0.78000003  53.23999786
H     6.73785210  -0.16650629  52.73472214
H    11.13000011   2.05999994  50.83000183
H    13.01000023   0.68000007  55.13000107
H    10.62000084   0.19999999  56.09000397
H     8.15999985   0.09000000  55.59000015
H     8.76999950   1.57000005  51.65999985
H    17.13000107   2.84000015  51.30000305
H     6.37000036   0.75999999  54.19000244
H     6.60000038   1.59999990  52.60000229
S    18.27000046   0.93999994  55.59000015
C    20.88999939   1.75999999  54.95999908
C    19.54000092   1.79000008  54.69999695
C    19.00000000   2.39999986  53.52000427
C    19.89999962   3.05000019  52.69000244
C    21.28999901   3.08999991  52.91999817
C    22.20000076   3.52999973  51.91999817
C    23.51000023   3.12000012  51.95999908
C    24.04000092   2.50000000  53.11999893
C    23.18000031   2.09000015  54.12000275
C    21.80000114   2.44000006  54.09999847
C    17.56999969   2.22000003  53.36000061
C    17.02999878   1.44999993  54.43000031
C    15.72000027   0.99000001  54.43000031
C    25.48999977   2.07999992  53.13999939
H    26.08514786   2.68931890  53.82016754
H    21.25999832   0.99000001  55.63999939
H    19.55999947   3.52999973  51.77000046
H    21.84999847   3.81999993  50.93000031
H    23.97999954   3.08999991  50.97999954
H    23.45000076   1.29999995  54.80999756
H    15.32999992   0.43000001  55.27000046
H    25.97999954   2.23000002  52.16999817
H    25.55999947   1.00999999  53.37999725
