96

S    17.05000114   6.17000008  58.44999695
C    19.68000031   6.47000027  57.62000275
C    18.38000107   6.17999983  57.28000259
C    17.98999977   5.78000021  55.96000290
C    18.98999977   5.63000011  55.01999664
C    20.35000038   5.79999971  55.37000275
C    21.45999908   5.65000010  54.48999786
C    22.73999977   6.05000019  54.80999756
C    23.06999969   6.47000027  56.11999893
C    22.06000137   6.56000042  57.04999924
C    20.72000122   6.28999996  56.66999817
C    16.54999924   5.55999994  55.93999863
C    15.86999989   5.80999947  57.16999817
C    14.50000000   5.75999975  57.36999893
C    24.47999954   6.90000010  56.45999908
H    25.09967041   6.12363005  56.90872574
H    19.75000000   6.98000002  58.57999802
H    18.65999985   5.31000042  54.02999878
H    21.35000038   5.44000053  53.43000031
H    23.57000160   5.95000029  54.12000275
H    22.34999847   6.90999985  58.04000092
H    14.02999973   5.96000004  58.34000015
H    24.93999863   7.30999994  55.56000137
H    24.38999939   7.73999977  57.15999985
S    13.23999977   4.61000013  53.82999802
C    10.53999996   4.44000006  54.71000290
C    11.85999966   4.75000000  54.93999863
C    12.27000046   5.28999996  56.20999908
C    11.42000008   5.38999987  57.29000092
C    10.07999992   5.05000019  57.02000046
C     9.19000053   5.00000000  58.13999939
C     7.86999989   4.67000008  57.95000076
C     7.37999964   4.32999992  56.65999985
C     8.23999977   4.21999979  55.59000015
C     9.57999992   4.69000006  55.72000122
C    13.71000099   5.51000023  56.25000000
C    14.39000034   5.23999977  55.02999878
C    15.77000046   5.19000006  54.85000229
C     5.97000027   3.78999996  56.58000183
H     5.47232723   4.06016541  55.64863968
H    10.17000008   4.15999985  53.72000122
H    11.72000027   5.61999989  58.30999756
H     9.63000011   5.14999962  59.12000275
H     7.13000011   4.76000023  58.73000336
H     7.96000004   3.74000025  54.65000153
H    16.21999931   4.99000025  53.88000107
H     5.42999983   4.23000002  57.42000198
H     5.98999977   2.70000005  56.63999939
S    16.84999847   7.09000015  52.52999878
C    19.54000092   7.04999971  51.81000137
C    18.23999977   6.71000004  51.50000000
C    17.88999939   5.98000002  50.31999969
C    18.89999962   5.77000046  49.40000153
C    20.22999954   6.17999983  49.65999985
C    21.31000137   5.89999962  48.77999878
C    22.62000084   6.23000050  49.08000183
C    22.95999908   6.91999960  50.27000046
C    21.93000031   7.26999998  51.11000061
C    20.59000015   6.86999989  50.86999893
C    16.44000053   5.89999962  50.20999908
C    15.73999977   6.39999962  51.33999634
C    14.34999943   6.47000027  51.33999634
C    24.37000084   7.30000019  50.68000031
H    24.91114998   6.46691561  51.12858582
H    19.72999954   7.46999979  52.80000305
H    18.71999931   5.23999977  48.46000290
H    21.25000000   5.38000011  47.83000183
H    23.47999954   5.92000008  48.50000000
H    22.06000137   7.75000000  52.08000183
H    13.92000008   6.67999983  52.30999756
H    24.89999962   7.53000021  49.73999786
H    24.27000046   8.06999969  51.45000076
S    13.26000023   5.32000017  47.69000244
C    10.59999943   4.86000013  48.57999802
C    11.87000084   5.33999968  48.79000092
C    12.18000031   5.93999958  50.06000137
C    11.18999958   5.96000004  51.02000427
C     9.85999966   5.51999998  50.81999969
C     8.82999992   5.51999998  51.81000137
C     7.57999992   5.03000021  51.47999573
C     7.26000023   4.65999985  50.14999771
C     8.22000027   4.63999987  49.16999817
C     9.55999947   4.94999981  49.54000092
C    13.60999966   6.12999964  50.20000076
C    14.32999992   5.66999960  49.06000137
C    15.71000004   5.53999996  49.06999969
C     5.82000017   4.25000000  49.89999771
H     5.27080393   4.85625553  49.17962265
H    10.43000031   4.38000011  47.61000061
H    11.43000031   6.25000000  52.04000092
H     8.89999962   5.89999962  52.81999969
H     6.71999979   5.05000019  52.15000153
H     7.97999954   4.26999998  48.18000031
H    16.28999901   5.19000006  48.22999954
H     5.21000004   4.41000032  50.79999924
H     5.75000000   3.17999983  49.65000153
