96

S    16.73999977   5.95000029  59.02999878
C    19.40000153   6.50000000  58.16999817
C    18.12999916   6.02999973  57.94000244
C    17.84000015   5.38000011  56.69000244
C    18.78000069   5.26999998  55.68000031
C    20.06999969   5.79999971  55.87999725
C    21.14000130   5.71000004  54.93999863
C    22.42000198   6.10000038  55.24000168
C    22.70000076   6.69000053  56.50000000
C    21.73000145   6.72999954  57.48000336
C    20.40999985   6.28000021  57.18999863
C    16.43000031   5.01999950  56.63000107
C    15.65000057   5.38999987  57.75000000
C    14.26000023   5.47999954  57.74000168
C    24.03000069   7.35000038  56.76000214
H    24.68711090   6.62860489  57.24569321
H    19.62000084   6.96000004  59.13000107
H    18.45000076   4.88999987  54.71000290
H    20.86000061   5.22000027  54.01000214
H    23.23999786   6.17000008  54.52999878
H    22.01000023   7.17000008  58.43000031
H    13.73000050   5.84000015  58.61999893
H    24.43000031   7.69999981  55.79999924
H    23.92000008   8.28999996  57.32999802
S    13.27999973   4.15999985  54.15999985
C    10.52000046   4.21999979  54.68999863
C    11.79999924   4.61999989  55.01999664
C    12.10999966   5.14999962  56.31000137
C    11.13000011   5.15999985  57.28000259
C     9.81000042   4.72000027  57.02000046
C     8.80999947   4.69999981  58.02999878
C     7.68000031   3.93000007  57.84999847
C     7.48000050   3.30999994  56.59000015
C     8.28999996   3.53999996  55.50000000
C     9.52999973   4.19999981  55.70000076
C    13.53999996   5.18000031  56.58000183
C    14.30999947   4.65000010  55.51000214
C    15.70000076   4.57999992  55.52000046
C     6.28000021   2.38999987  56.49000168
H     5.47524261   2.81730485  55.89177322
H    10.29000092   3.73000002  53.75000000
H    11.40999985   5.36000013  58.30999756
H     9.07999992   5.05000019  59.02000046
H     6.90999985   3.82999992  58.61000061
H     8.03999996   3.01999998  54.58000183
H    16.18999863   4.03999996  54.71000290
H     6.01999998   2.36000013  57.56000137
H     6.54999971   1.38999999  56.13999939
S    12.46999931   1.93000007  51.20999908
C     9.92000008   1.14999998  52.12999725
C    11.28000069   1.18000007  52.29000092
C    11.82999992   0.65999997  53.50000000
C    11.00999928   0.04000000  54.43999863
C     9.61999989  -0.14000000  54.25000000
C     8.73000050  -0.71999997  55.20000076
C     7.39000034  -0.69000000  54.91000366
C     6.84999990  -0.09999999  53.74000168
C     7.69000006   0.41999999  52.77999878
C     9.09000015   0.44000000  53.04000092
C    13.27000046   0.90000004  53.47999954
C    13.78999901   1.57000005  52.34000397
C    15.11999989   1.93000007  52.22999954
C     5.38999987  -0.37000000  53.44999695
H     5.22005749  -0.34167629  52.37369919
H     9.48000050   1.69000006  51.29000092
H    11.44999981  -0.34999999  55.34999847
H     9.06000042  -1.13000000  56.14999771
H     6.71000004  -1.28000009  55.52000046
H     7.42000008   0.83999997  51.81999969
H    15.44000053   2.22000003  51.24000168
H     5.03999996  -1.26999998  53.95999908
H     4.85000038   0.48999998  53.86000061
S    16.75000000   0.69000000  55.63000107
C    19.34999847   1.43999994  54.86000061
C    18.00000000   1.36999989  54.58000183
C    17.43999863   1.87999988  53.36999893
C    18.23999977   2.54999995  52.47000122
C    19.62000084   2.68000007  52.77999878
C    20.46999931   3.21000004  51.77000046
C    21.83000183   3.25000000  51.97000122
C    22.43999863   2.80999994  53.16999817
C    21.61000061   2.28999996  54.15000153
C    20.20999908   2.15000010  53.97999573
C    16.00000000   1.70000005  53.29999924
C    15.48999977   1.00999999  54.43000031
C    14.17000008   0.57999998  54.50000000
C    23.94000053   2.61000013  53.16999817
H    24.50270081   3.04449105  53.99624634
H    19.77000046   0.90000004  55.70000076
H    17.82999992   3.08999991  51.60999680
H    20.02000046   3.52999973  50.83000183
H    22.43000031   3.58999991  51.11999893
H    22.09000015   1.85000002  55.01999664
H    13.86000061   0.06000000  55.40999985
H    24.38999939   2.99000001  52.25000000
H    24.09000015   1.52999997  53.06000137
