96

S    17.90999985   6.63000011  58.86000061
C    20.58000183   6.76999998  58.15000153
C    19.30999947   6.34999990  57.81000137
C    18.89999962   5.78000021  56.56999969
C    19.93999863   5.55000019  55.68000031
C    21.22999954   6.09000015  55.84999847
C    22.29999924   6.03999996  54.91000366
C    23.57999992   6.40999985  55.21999741
C    23.90999985   6.83000040  56.53999710
C    22.92000008   6.85999966  57.49000168
C    21.54999924   6.65999985  57.12999725
C    17.47999954   5.46000004  56.56999969
C    16.77000046   5.92000008  57.70999908
C    15.38000011   5.88999987  57.78999710
C    25.32999992   7.14999962  56.91999817
H    25.79767418   6.40597153  57.56482697
H    20.78000069   7.23000002  59.10999680
H    19.78000069   4.97000027  54.77000427
H    22.09000015   5.65000010  53.90999603
H    24.41999817   6.38999987  54.52999878
H    23.15000153   7.20000029  58.48999786
H    14.85999966   6.17000008  58.69999695
H    25.93000031   7.16000032  56.00000000
H    25.40999985   8.17000008  57.30999756
S    14.25000000   4.32000017  54.36000061
C    11.57999992   4.00999975  55.00999832
C    12.81999969   4.46999979  55.38999939
C    13.19000053   5.09000015  56.63000107
C    12.23000050   5.19999981  57.61000061
C    10.93000031   4.72000027  57.30999756
C     9.89999962   4.85000038  58.29000092
C     8.61999989   4.48999977  57.95999908
C     8.32999992   3.79999995  56.75000000
C     9.30000019   3.68000007  55.77999878
C    10.64000034   4.05999994  56.06999969
C    14.60999966   5.40000010  56.72000122
C    15.34999943   4.96000004  55.59999847
C    16.72999954   4.80999994  55.59000015
C     6.94999981   3.21000004  56.52999878
H     6.29287434   3.85284019  55.94430161
H    11.23000050   3.63000011  54.05000305
H    12.56999969   5.68000031  58.52000427
H    10.07999992   5.14999962  59.31999969
H     7.86999989   4.53999996  58.75000000
H     9.11000061   3.17999983  54.82999802
H    17.18000031   4.38000011  54.69999695
H     6.44000006   3.09999990  57.50000000
H     7.07000017   2.22000003  56.05999756
S    17.69000053   6.81999969  52.69000244
C    20.20000076   7.49000025  51.72000122
C    19.00000000   6.85999966  51.50000000
C    18.55999947   6.43000031  50.20000076
C    19.56999969   6.32999992  49.26000214
C    20.86000061   6.89000034  49.41999817
C    21.88999939   6.71999979  48.44999695
C    23.12000084   7.30000019  48.69999695
C    23.36000061   7.90999985  49.94999695
C    22.40999985   8.15999985  50.91999817
C    21.14999962   7.53999996  50.65999985
C    17.13000107   6.15999985  50.21999741
C    16.47999954   6.40999985  51.45000076
C    15.11000061   6.25000000  51.60999680
C    24.77999878   8.27999973  50.31000137
H    25.19280624   7.73196411  51.15696335
H    20.42000008   7.96000004  52.67000198
H    19.38999939   5.77000046  48.34999847
H    21.61999893   6.21000004  47.54000092
H    23.81999969   7.22000027  47.87000275
H    22.62000084   8.59000015  51.88999939
H    14.70000076   6.47000027  52.58999634
H    25.38999939   8.06999969  49.43000031
H    24.80999947   9.34000015  50.59000015
S    13.88000011   4.90999985  48.06999969
C    11.36999989   4.23999977  49.10999680
C    12.57999992   4.88000011  49.27000046
C    12.92000008   5.45000029  50.54000092
C    11.92999935   5.51000023  51.50000000
C    10.62000084   5.00000000  51.33999634
C     9.64999962   5.15999985  52.37999725
C     8.39999962   4.61000013  52.18999863
C     8.11999989   3.93000007  50.97999954
C     9.06000042   3.74000025  50.00000000
C    10.36999893   4.28000021  50.12000275
C    14.34000015   5.78999996  50.52999878
C    15.00000000   5.47999954  49.31999969
C    16.36999893   5.68000031  49.13999939
C     6.71000004   3.44000006  50.70000076
H     6.29136038   3.96507359  49.84143448
H    11.19999981   3.60000014  48.23999786
H    12.11999989   5.91000032  52.49000168
H     9.85999966   5.92999983  53.11999893
H     7.53999996   4.69999981  52.84000015
H     8.84000015   3.30000019  49.02999878
H    16.84000015   5.44000053  48.20000076
H     6.05000019   3.68000007  51.53999710
H     6.85999966   2.37000012  50.56000137
