96

S    18.06999969   6.35999966  58.82999802
C    20.76999855   6.44000006  58.11000061
C    19.50000000   5.97000027  57.84999847
C    19.14999962   5.25000000  56.65999985
C    20.10000038   5.21000004  55.65999985
C    21.40999985   5.69000006  55.89000320
C    22.37999916   5.73999977  54.84000397
C    23.67000198   6.12999964  55.11000061
C    24.04999924   6.51000023  56.42000198
C    23.15999985   6.57000017  57.47000122
C    21.80999947   6.23000050  57.16999817
C    17.71000099   5.28999996  56.45000076
C    16.97000122   5.82999992  57.54000092
C    15.59999943   6.01999998  57.47000122
C    25.45000076   6.98000002  56.75000000
H    26.01766014   6.27752113  57.36023331
H    20.96999931   7.09000015  58.95000076
H    19.93000031   4.86000013  54.64000320
H    22.15999985   5.46000004  53.81999969
H    24.47000122   6.06999969  54.38000107
H    23.46999931   7.00999975  58.40999985
H    15.11000061   6.39999962  58.36000061
H    26.07000160   7.09000015  55.86000061
H    25.25000000   7.97999954  57.14000320
S    14.55000019   4.32000017  53.97999573
C    11.84000015   4.41000032  54.65999985
C    13.12000084   4.82999992  54.91000366
C    13.47000027   5.58000040  56.07999802
C    12.43999958   5.91000032  56.93999863
C    11.11999989   5.42000008  56.77000046
C    10.08999920   5.55999994  57.72999573
C     8.80000019   5.10999966  57.56000137
C     8.51000023   4.38000011  56.38000107
C     9.51000023   4.11999989  55.47000122
C    10.77999973   4.75000000  55.54000092
C    14.89999962   5.56999969  56.33999634
C    15.59000015   5.07000017  55.20000076
C    16.97000122   4.94000006  55.31999969
C     7.07000017   3.97000027  56.11999893
H     6.61436415   4.34020424  55.20160675
H    11.69999981   3.65000010  53.88999939
H    12.64999962   6.48999977  57.84000015
H    10.31000042   5.88000011  58.75000000
H     8.05999947   5.26000023  58.34000015
H     9.30999947   3.47000003  54.61999893
H    17.48999977   4.42999983  54.52000046
H     6.50000000   4.35999966  56.97000122
H     7.00000000   2.87999988  56.19999695
S    18.47999954   6.72999954  52.63000107
C    21.11000061   7.09999990  51.76000214
C    19.88000107   6.51999998  51.56000137
C    19.59000015   5.86999989  50.31999969
C    20.63999939   5.61999989  49.45999908
C    21.94999886   6.11000013  49.68999863
C    23.08000183   5.79999971  48.88000107
C    24.36000061   6.12999964  49.27000046
C    24.56999969   7.07999992  50.30000305
C    23.51000023   7.36999989  51.12999725
C    22.18000031   6.94000006  50.84000015
C    18.13999939   5.75000000  50.17000198
C    17.43000031   6.17000008  51.31999969
C    16.03999901   6.19000006  51.31999969
C    25.97999954   7.51999950  50.59999847
H    26.44281578   6.92902136  51.39034271
H    21.35999870   7.57000017  52.70999908
H    20.55999947   4.94000006  48.61000061
H    22.86000061   5.12000036  48.06000137
H    25.20999908   5.77000046  48.69999695
H    23.75000000   7.90000010  52.04000092
H    15.55999947   6.65999985  52.18000031
H    26.53000069   7.37999964  49.65000153
H    26.01000023   8.56999969  50.89000320
S    14.94999981   4.28000021  48.04999924
C    12.23000050   4.30000019  48.85000229
C    13.53999996   4.63000011  49.06999969
C    13.86999989   5.35000038  50.26000214
C    12.86000061   5.59999990  51.17000198
C    11.51000023   5.22000027  51.00999832
C    10.52999973   5.38000011  52.02999878
C     9.23999977   4.94000006  51.81000137
C     8.98999977   4.11000013  50.68999863
C     9.90999985   3.91000009  49.68000031
C    11.18000031   4.55000019  49.78000259
C    15.31999969   5.55000019  50.31000137
C    16.05999947   5.05000019  49.20000076
C    17.43999863   5.18000031  49.09999847
C     7.67000008   3.37000012  50.56000137
H     7.10165405   3.89572024  49.79273224
H    12.05000019   3.68999982  47.97000122
H    13.14000034   6.09000015  52.09999847
H    10.81999969   5.96000004  52.88999939
H     8.39999962   5.05000019  52.48000336
H     9.85999966   3.22000003  48.83999634
H    17.95999908   4.75000000  48.26000214
H     7.23999977   3.47000003  51.56999969
H     7.92999983   2.38000011  50.18000031
