96

S    18.22000122   6.05000019  58.80000305
C    20.92000008   6.25999975  58.08000183
C    19.63000107   5.89999962  57.74000168
C    19.27999878   5.26999998  56.50000000
C    20.22000122   5.12000036  55.50000000
C    21.56999969   5.42000008  55.81999969
C    22.67000008   5.42999983  54.92000198
C    23.95999908   5.78000021  55.25000000
C    24.30999947   5.91000032  56.62000275
C    23.26999855   6.10000038  57.50000000
C    21.90999985   5.93999958  57.11999893
C    17.84000015   5.14999962  56.35000229
C    17.13000107   5.46999979  57.52999878
C    15.75000000   5.55000019  57.63999939
C    25.63999939   6.52999973  57.01000214
H    26.19606590   5.80283546  57.60171127
H    21.19999886   6.69000053  59.02999878
H    19.86999893   4.88000011  54.50000000
H    22.50999832   5.17000008  53.88000107
H    24.63000107   5.95000029  54.41999817
H    23.46999931   6.48999977  58.50000000
H    15.36999893   5.92999983  58.57999802
H    26.21000099   6.96000004  56.18000031
H    25.39999962   7.42000008  57.61000061
S    14.60000038   4.09000015  54.13999939
C    11.87999916   4.03999996  54.89999771
C    13.19000053   4.32999992  55.19000244
C    13.53999996   5.00000000  56.40999603
C    12.55000019   5.33999968  57.30999756
C    11.19999981   4.98000002  57.09999847
C    10.11999989   5.19999981  58.01000214
C     8.82999992   4.78999996  57.75000000
C     8.57999992   4.05999994  56.56000137
C     9.56999969   3.81000018  55.63000107
C    10.88000107   4.28999996  55.87999725
C    14.98999977   5.10999966  56.55000305
C    15.70000076   4.69999981  55.38999939
C    17.06999969   4.79999971  55.22999573
C     7.20000029   3.51999998  56.30000305
H     6.74358559   3.91936302  55.39430237
H    11.72999954   3.44000006  54.01000214
H    12.84999943   5.56999969  58.33000183
H    10.39999962   5.61999989  58.96999741
H     8.05000019   5.05000019  58.46000290
H     9.26999950   3.31999993  54.69999695
H    17.38999939   4.56999969  54.20999908
H     6.60000038   3.72000003  57.19999695
H     7.28999996   2.43000007  56.20999908
S    14.55999947   1.94999993  51.18999863
C    11.94000053   1.54999995  51.98999786
C    13.27000046   1.26999998  52.19999695
C    13.81999969   0.65999997  53.36999893
C    12.94000053   0.14000000  54.29999924
C    11.54999924   0.19999999  54.05000305
C    10.59999943  -0.34999999  54.95999908
C     9.25000000  -0.24000001  54.72999954
C     8.73999977   0.54000002  53.64999771
C     9.64999962   1.11000001  52.77999878
C    11.05000019   0.97999996  52.95000076
C    15.26999950   0.79000002  53.44999695
C    15.80999947   1.58000004  52.39999771
C    17.05000114   2.21000004  52.48000336
C     7.26000023   0.67000002  53.40999985
H     6.86214066   0.10873348  52.56454849
H    11.51999950   2.19000006  51.22000122
H    13.34000015  -0.41000003  55.14999771
H    11.02000046  -0.71999997  55.89000320
H     8.56000042  -0.75999999  55.38999939
H     9.30999947   1.66999996  51.90999985
H    17.50000000   2.61999989  51.58000183
H     6.70000029   0.28999999  54.27999878
H     6.93000031   1.71000004  53.30999756
S    18.55999947   0.68000007  55.90000153
C    21.14999962   1.38000000  55.19000244
C    19.79999924   1.47000003  54.92000198
C    19.27999878   2.03999996  53.70999908
C    20.15999985   2.61999989  52.81000137
C    21.54999924   2.46000004  53.01000214
C    22.50000000   2.96999979  52.09000015
C    23.84000015   2.75999999  52.34000397
C    24.30999947   2.01999998  53.46000290
C    23.43000031   1.47000003  54.36000061
C    22.04999924   1.74000001  54.15999985
C    17.86000061   1.77999997  53.54000092
C    17.40999985   0.92000002  54.56999969
C    16.10999870   0.41999999  54.50000000
C    25.79999924   1.80000007  53.56999969
H    26.21061516   2.12565947  54.52574158
H    21.51000023   0.83999997  56.05999756
H    19.84000015   3.10999990  51.88999939
H    22.19000053   3.48000002  51.18000031
H    24.54000092   3.28999996  51.70000076
H    23.85999870   0.96000004  55.21999741
H    15.65000057  -0.13000000  55.31999969
H    26.34000015   2.42000008  52.84000015
H    26.18000031   0.81000000  53.29999924
