96

S    17.48999977   6.32000017  58.70999908
C    20.15999985   6.57000017  57.91999817
C    18.89000130   6.12999964  57.63000107
C    18.54999924   5.65999985  56.31999969
C    19.59000015   5.52999973  55.41999817
C    20.90999985   5.95000029  55.72999954
C    21.91999817   5.98000002  54.73999786
C    23.19000053   6.40999985  55.04000092
C    23.51000023   6.91999960  56.32999802
C    22.56999969   6.89000034  57.32999802
C    21.25999832   6.39999962  57.04999924
C    17.11000061   5.53999996  56.18999863
C    16.40999985   5.93999958  57.36000061
C    15.03000069   6.01000023  57.43000031
C    24.90999985   7.40000010  56.65000153
H    25.33889198   6.72807074  57.39341354
H    20.48000145   7.03999996  58.83999634
H    19.25000000   5.42000008  54.38999939
H    21.75000000   5.65000010  53.70999908
H    23.94000053   6.38000011  54.25000000
H    22.80999947   7.13999987  58.36000061
H    14.55000019   6.40999985  58.31999969
H    25.58000183   7.49000025  55.79000092
H    24.87999916   8.46000004  56.93000031
S    13.80000019   4.28000021  54.03999710
C    11.14999962   4.25000000  54.86999893
C    12.43000031   4.67999983  55.10000229
C    12.84000015   5.26999998  56.33999634
C    11.89000034   5.40999985  57.34000397
C    10.52999973   5.09000015  57.11999893
C     9.52000046   5.28999996  58.09999847
C     8.25000000   4.81999969  57.88000107
C     7.88000011   4.39000034  56.56999969
C     8.80000019   4.19000006  55.56999969
C    10.15999985   4.53000021  55.84999847
C    14.27999973   5.50000000  56.36000061
C    14.93999958   4.88999987  55.26000214
C    16.31999969   4.99000025  55.18000031
C     6.50000000   3.88999987  56.22000122
H     6.00814819   4.42462111  55.40737534
H    10.98999977   3.51000023  54.09999847
H    12.18000031   5.75000000  58.33000183
H     9.68999958   5.88999987  59.00000000
H     7.57000017   4.76999998  58.73000336
H     8.64999962   3.58999991  54.68000031
H    16.75000000   4.63000011  54.25000000
H     5.75999975   3.93000007  57.04000092
H     6.60000038   2.84000015  55.93999863
S    17.68000031   7.13000011  52.51999664
C    20.39999962   7.26999998  51.69000244
C    19.09000015   6.89000034  51.46999741
C    18.67000008   6.19000006  50.30000305
C    19.59000015   5.91000032  49.29999924
C    20.92000008   6.37000036  49.43999863
C    21.90999985   6.35999966  48.41999817
C    23.21000099   6.74000025  48.67000198
C    23.50000000   7.62000036  49.75000000
C    22.57999802   7.69000006  50.77000046
C    21.31000137   7.07999992  50.63000107
C    17.22999954   5.97000027  50.17000198
C    16.55999947   6.43000031  51.32999802
C    15.18000031   6.34999990  51.42000198
C    24.89000130   8.19000053  49.94999695
H    25.38908577   7.66239500  50.76279831
H    20.65000153   7.88999987  52.55000305
H    19.30999947   5.40999985  48.37999725
H    21.77999878   5.98999977  47.39999771
H    23.92999840   6.50000000  47.90000153
H    22.79999924   8.22000027  51.69000244
H    14.68999958   6.61999989  52.35000229
H    25.51000214   8.06999969  49.05000305
H    24.79000092   9.23999977  50.24000168
S    14.11000061   4.80999994  47.91999817
C    11.44999981   4.35999966  48.83999634
C    12.71000004   4.90000010  49.00000000
C    12.98999977   5.64000034  50.19000244
C    12.02000046   5.88000011  51.14999771
C    10.70000076   5.44000053  50.87999725
C     9.72999954   5.59000015  51.90999985
C     8.43999958   5.18000031  51.68000031
C     8.10000038   4.39000034  50.54000092
C     9.04999924   4.17000008  49.58000183
C    10.38000011   4.65000010  49.72999954
C    14.40999985   5.93999958  50.31999969
C    15.13000011   5.60999966  49.13999939
C    16.51000023   5.45000029  49.09000015
C     6.74000025   3.74000025  50.45999908
H     6.34119034   4.01774263  49.48434067
H    11.19999981   3.81000018  47.94000244
H    12.35999966   6.15000010  52.15000153
H    10.00000000   6.12999964  52.81999969
H     7.62000036   5.50000000  52.29999924
H     8.89000034   3.50000000  48.73000336
H    17.11000061   4.99000025  48.29999924
H     6.09000015   4.13999987  51.25000000
H     6.91999960   2.66999984  50.58000183
