96

S    18.48999977   6.56000042  58.72000122
C    21.18999863   6.84999990  58.01000214
C    19.92000008   6.44000006  57.68000031
C    19.63000107   5.92999983  56.37000275
C    20.65000153   5.86000013  55.43000031
C    21.98999786   6.15000010  55.77999878
C    23.09000015   6.03999996  54.86999893
C    24.34000015   6.48999977  55.21999741
C    24.57999992   7.07000017  56.49000168
C    23.57000160   7.11000013  57.42000198
C    22.26000023   6.65999985  57.09999847
C    18.20000076   5.68000031  56.22000122
C    17.46000099   6.06999969  57.36000061
C    16.07999992   6.17000008  57.38999939
C    25.98999977   7.50000000  56.84999847
H    26.40358353   6.79405689  57.57020187
H    21.47999954   7.36999989  58.92000198
H    20.43000031   5.38999987  54.47999954
H    22.93000031   5.63000011  53.88000107
H    25.09000015   6.50000000  54.43000031
H    23.84000015   7.53999996  58.37999725
H    15.52999973   6.34000015  58.30999756
H    26.63000107   7.51999950  55.96000290
H    25.92000008   8.53999996  57.18999863
S    15.13000011   4.76999998  53.75999832
C    12.38000011   4.71000004  54.33000183
C    13.63999939   5.14999962  54.65000153
C    13.94000053   5.60999966  55.97000122
C    12.90999985   5.69999981  56.88000107
C    11.59000015   5.38999987  56.49000168
C    10.47999954   5.53999996  57.36000061
C     9.23999977   5.01999950  57.06999969
C     9.02999973   4.32999992  55.84000015
C    10.00000000   4.33999968  54.86000061
C    11.26000023   4.92999983  55.15999603
C    15.36000061   5.82000017  56.24000168
C    16.10000038   5.26999998  55.15999603
C    17.48999977   5.26999998  55.08999634
C     7.68000031   3.70000005  55.61999893
H     6.99944210   4.35929060  55.08122635
H    12.17000008   4.15000010  53.41999817
H    13.15000057   5.93999958  57.91999817
H    10.53999996   5.86999989  58.40000153
H     8.38000011   5.22000027  57.70999908
H     9.77999973   3.76999998  53.95999908
H    18.06999969   4.85000038  54.27000046
H     7.23999977   3.44000006  56.59000015
H     7.88999987   2.79999995  55.02999878
S    17.97000122   7.04999971  52.39999771
C    20.72999954   7.11999989  51.76000214
C    19.44000053   6.76000023  51.45000076
C    19.12999916   6.10000038  50.21999741
C    20.15999985   5.79999971  49.34000015
C    21.48999977   6.14000034  49.65999985
C    22.50000000   5.95000029  48.67000198
C    23.75000000   6.50000000  48.79000092
C    24.10000038   7.11999989  50.01999664
C    23.11000061   7.39000034  50.94999695
C    21.80999947   6.83000040  50.89000320
C    17.70000076   6.11999989  49.98000336
C    16.90999985   6.63000011  51.04000092
C    15.52000046   6.76000023  51.06999969
C    25.50000000   7.59999990  50.31000137
H    25.93926620   7.00486469  51.11059952
H    20.98999977   7.63000011  52.68000031
H    19.82999992   5.51999998  48.34000015
H    22.23999977   5.51999998  47.70999908
H    24.44000053   6.51999998  47.95999908
H    23.29999924   8.00000000  51.83000183
H    15.06000042   7.05999947  52.00000000
H    26.04999924   7.50999975  49.36000061
H    25.38000107   8.65999985  50.54999924
S    14.47999954   4.73000002  47.83000183
C    11.84000015   4.50000000  48.56999969
C    13.05999947   5.07999992  48.82999802
C    13.38999939   5.73999977  50.06000137
C    12.36999989   5.84999990  50.98999786
C    11.05999947   5.40000010  50.70999908
C     9.98000050   5.68000031  51.59999847
C     8.67999935   5.40999985  51.25999832
C     8.39999962   4.69999981  50.06000137
C     9.40999985   4.38000011  49.18000031
C    10.76000023   4.73000002  49.47000122
C    14.80000019   6.10000038  50.06999969
C    15.53999996   5.53999996  49.00000000
C    16.93000031   5.55999994  48.94000244
C     7.07999992   4.00000000  49.82999802
H     6.41106939   4.42697716  49.08278656
H    11.67000008   4.07000017  47.58999634
H    12.46999931   6.09000015  52.04999924
H    10.26000023   5.98999977  52.60000229
H     7.86999989   5.40999985  51.97999954
H     9.13999939   3.88999987  48.25000000
H    17.40999985   4.92000008  48.22000122
H     6.53999996   3.98000002  50.77999878
H     7.28999996   2.93000007  49.68999863
