96

S    17.78000069   6.28000021  58.70999908
C    20.45000076   6.74000025  57.84999847
C    19.19000053   6.21999979  57.63000107
C    18.78999901   5.66999960  56.37000275
C    19.71999931   5.52999973  55.35999680
C    21.04999924   5.98999977  55.54999924
C    21.98999786   5.97000027  54.47999954
C    23.26000023   6.44999981  54.66999817
C    23.55999947   7.00999975  55.93000031
C    22.63999939   7.30000019  56.90999985
C    21.38000107   6.65999985  56.77999878
C    17.35000038   5.59000015  56.20999908
C    16.64999962   5.82999992  57.42000198
C    15.26000023   5.91000032  57.44999695
C    25.03000069   7.30000019  56.16000366
H    25.42847824   6.75209188  57.01388550
H    20.66999817   7.18999958  58.80000305
H    19.44000053   5.03999996  54.43000031
H    21.64999962   5.47999954  53.55999756
H    24.03000069   6.35999966  53.90999603
H    22.93000031   7.69000006  57.88000107
H    14.86999989   6.17000008  58.43000031
H    25.65999985   7.00000000  55.31000137
H    25.22000122   8.36999989  56.24000168
S    13.99000072   4.90000010  53.88999939
C    11.39999962   4.38000011  54.84000397
C    12.64000034   4.94999981  55.04000092
C    13.02000046   5.47999954  56.31000137
C    12.07999992   5.50000000  57.32999802
C    10.78999996   4.92999983  57.18000031
C     9.81000042   4.94000006  58.20999908
C     8.55000019   4.42999983  57.97000122
C     8.19000053   3.97000027  56.68000031
C     9.11000061   3.98000002  55.65000153
C    10.44000053   4.42999983  55.87999725
C    14.46000004   5.68000031  56.32999802
C    15.15999985   5.29999971  55.14999771
C    16.54999924   5.26999998  55.10000229
C     6.76999998   3.67000008  56.27999878
H     6.33096504   4.56931353  55.84804535
H    11.17000008   3.89999986  53.88999939
H    12.42000008   5.98000002  58.23999786
H    10.03999901   5.36999989  59.18000031
H     7.76999998   4.41000032  58.72000122
H     8.80000019   3.75999975  54.62999725
H    16.94000053   4.92999983  54.15000153
H     6.21999979   3.32999992  57.16999817
H     6.84000015   2.86000013  55.54999924
S    18.19000053   7.48000050  52.25000000
C    20.81000137   7.40000010  51.43000031
C    19.52999878   6.91999960  51.24000168
C    19.11999893   6.35999966  49.99000168
C    20.05000114   6.15999985  48.99000168
C    21.40000153   6.51999998  49.22000122
C    22.43000031   6.34000015  48.25000000
C    23.71999931   6.76999998  48.40999985
C    24.05999947   7.44999981  49.61000061
C    23.16999817   7.50000000  50.65999985
C    21.80999947   7.13000011  50.45999908
C    17.67000008   6.28999996  49.92000198
C    17.02999878   6.81999969  51.06999969
C    15.65000057   6.85999966  51.23000336
C    25.48999977   7.90999985  49.75999832
H    25.96172905   7.51689291  50.66057587
H    21.05999947   7.96999979  52.31999969
H    19.89999962   5.65999985  48.04000092
H    22.11999893   5.77000046  47.36999893
H    24.30000114   6.83000040  47.50000000
H    23.45000076   7.88999987  51.63999939
H    15.29000092   7.16000032  52.19999695
H    25.90999985   7.44999981  48.86000061
H    25.55999947   9.00000000  49.79000092
S    14.42000008   4.86999989  47.97999954
C    11.84000015   4.69000006  48.81999969
C    13.07000065   5.26000023  49.06000137
C    13.40000057   6.03999996  50.21999741
C    12.38999939   6.30999994  51.11999893
C    11.11999989   5.71000004  50.96000290
C    10.11000061   5.95000029  51.93999863
C     8.89000034   5.33999968  51.79000092
C     8.57999992   4.53999996  50.65999985
C     9.51000023   4.41000032  49.65999985
C    10.82999992   4.90999985  49.79999924
C    14.81999969   6.34999990  50.21999741
C    15.46000004   5.82000017  49.06999969
C    16.84000015   5.71000004  48.95000076
C     7.30999994   3.72000003  50.59000015
H     6.51950312   4.23987627  50.04875946
H    11.73999977   4.07999992  47.93000031
H    12.51999950   6.86999989  52.04000092
H    10.36000061   6.38000011  52.90999985
H     8.03999996   5.53999996  52.43999863
H     9.30000019   3.81999993  48.75999832
H    17.28000069   5.32999992  48.04000092
H     6.98999977   3.42000008  51.59999847
H     7.67000008   2.76999998  50.18000031
