96

S    17.63000107   6.44999981  58.86000061
C    20.29999924   6.58999968  58.15000153
C    19.02000046   6.25999975  57.77999878
C    18.67000008   5.71000004  56.51000214
C    19.65999985   5.55999994  55.54999924
C    20.94000053   6.07999992  55.83000183
C    21.93000031   6.17999983  54.80999756
C    23.22999954   6.54999971  55.06999969
C    23.59000015   6.90999985  56.39999771
C    22.65999985   6.86999989  57.41000366
C    21.31999969   6.48000002  57.15999985
C    17.22999954   5.47999954  56.42000198
C    16.53000069   5.82999992  57.60000229
C    15.14999962   5.75000000  57.72999573
C    25.00999832   7.28999996  56.76000214
H    25.54538918   6.59756279  57.40960693
H    20.48000145   7.20000029  59.02999878
H    19.34999847   5.33999968  54.52999878
H    21.68000031   5.78000021  53.82999802
H    23.97999954   6.67999983  54.29999924
H    22.88999939   7.13000011  58.43999863
H    14.68999958   5.97000027  58.68999863
H    25.58000183   7.40999985  55.83000183
H    25.03000069   8.27000046  57.25999832
S    13.94000053   4.32000017  54.31000137
C    11.30000019   3.86999989  55.18000031
C    12.56000042   4.33999968  55.41999817
C    12.94999981   5.07999992  56.59000015
C    11.92999935   5.38999987  57.48000336
C    10.60999966   4.92000008  57.28000259
C     9.59999943   4.98000002  58.29000092
C     8.36000061   4.42999983  58.11000061
C     7.95000029   3.81999993  56.88999939
C     8.94999981   3.65000010  55.96000290
C    10.26999950   4.13000011  56.12999725
C    14.37999916   5.32000017  56.63999939
C    15.11000061   4.90999985  55.50000000
C    16.50000000   4.80999994  55.43000031
C     6.51000023   3.40999985  56.66999817
H     6.04745150   3.97217441  55.85876083
H    10.95999908   3.25999999  54.34999847
H    12.20000076   5.96000004  58.36000061
H     9.77999973   5.38999987  59.27999878
H     7.57000017   4.42000008  58.85000229
H     8.85000038   3.30000019  54.93000031
H    17.04000092   4.33999968  54.61999893
H     6.01000023   3.53999996  57.63999939
H     6.44000006   2.33999991  56.44000244
S    17.81999969   6.65999985  52.84000015
C    20.38000107   7.42999983  51.81999969
C    19.11000061   6.94000006  51.65000153
C    18.77000046   6.44000006  50.35999680
C    19.68000031   6.51999998  49.31999969
C    21.02999878   6.84999990  49.52999878
C    22.04000092   6.80999994  48.52000427
C    23.31999969   7.17999983  48.86000061
C    23.59999847   7.81000042  50.10000229
C    22.69000053   7.86999989  51.12999725
C    21.38999939   7.36999989  50.81999969
C    17.36999893   6.05000019  50.21999741
C    16.76000023   6.19000006  51.50000000
C    15.39000034   6.03999996  51.66999817
C    24.97999954   8.36000061  50.38000107
H    25.48459053   7.64220381  51.02672958
H    20.62000084   7.71000004  52.84000015
H    19.45000076   6.03999996  48.36999893
H    21.84000015   6.44999981  47.51999664
H    24.05999947   7.07999992  48.06999969
H    23.00000000   8.30999947  52.06999969
H    14.85000038   6.25999975  52.57999802
H    25.56999969   8.56999969  49.47999954
H    24.79000092   9.25000000  51.00000000
S    14.18000031   4.90000010  47.98999786
C    11.51000023   4.67999983  48.90999603
C    12.81999969   5.05000019  49.12000275
C    13.20000076   5.55999994  50.40000153
C    12.31999969   5.58000040  51.45999908
C    10.98999977   5.13999987  51.24000168
C    10.11000061   5.26999998  52.35000229
C     8.82999992   4.76999998  52.21000290
C     8.40999985   4.19999981  50.97000122
C     9.23999977   4.13999987  49.86999893
C    10.55999947   4.65000010  49.95999908
C    14.65000057   5.73000002  50.52000046
C    15.26999950   5.45000029  49.27999878
C    16.63999939   5.65000010  49.09999847
C     7.04999971   3.54999995  50.93000031
H     6.43715000   4.06308365  50.18887711
H    11.25000000   4.07999992  48.04000092
H    12.71000004   5.93999958  52.41000366
H    10.59000015   5.75000000  53.18999863
H     8.14000034   4.72000027  53.04000092
H     8.97000027   3.71000004  48.90999603
H    17.13000107   5.58000040  48.13999939
H     6.52999973   3.37000012  51.88000107
H     7.20000029   2.56000018  50.47999954
