96

S    17.86999893   5.55000019  58.68999863
C    20.48999977   5.98000002  57.90000153
C    19.22000122   5.59999990  57.54000092
C    18.77000046   5.44000053  56.18999863
C    19.70000076   5.51000023  55.17000198
C    21.02000046   5.92000008  55.47000122
C    22.01000023   6.03999996  54.45000076
C    23.31000137   6.40999985  54.69999695
C    23.64999962   6.75000000  56.04000092
C    22.72999954   6.63000011  57.04999924
C    21.42000008   6.11999989  56.84000015
C    17.35000038   5.17000008  56.10000229
C    16.72000122   5.23000002  57.36999893
C    15.34000015   5.27999973  57.48000336
C    25.03000069   7.30999994  56.31999969
H    25.65361977   6.63677359  56.90818787
H    20.68000031   6.39999962  58.88000107
H    19.45000076   5.19000006  54.15999985
H    21.63000107   5.72000027  53.47999954
H    24.01000023   6.56000042  53.88999939
H    22.96999931   7.00999975  58.04000092
H    14.91000080   5.36999989  58.47000122
H    25.63999939   7.57999992  55.44000244
H    24.99000168   8.28999996  56.81999969
S    14.04000092   4.81999969  53.76999664
C    11.44999981   3.98000002  54.61000061
C    12.69999981   4.50000000  54.87999725
C    13.07000065   4.79999971  56.23000336
C    12.15999985   4.90999985  57.27000427
C    10.85999966   4.42000008  56.98999786
C     9.86999989   4.50000000  58.00000000
C     8.59000015   4.07000017  57.74000168
C     8.23000050   3.65000010  56.43000031
C     9.15999985   3.58999991  55.41999817
C    10.50000000   4.00999975  55.65999985
C    14.50000000   5.05999994  56.38000107
C    15.17000008   5.00999975  55.13000107
C    16.54000092   5.12000036  54.95999908
C     6.90000010   2.99000001  56.12999725
H     6.18224907   3.60115433  55.58280182
H    11.16000080   3.60000014  53.62999725
H    12.32999992   5.12000036  58.31999969
H    10.08999920   4.98000002  58.95000076
H     7.90000010   3.94000006  58.56999969
H     9.00000000   3.09999990  54.45999908
H    16.97999954   5.19000006  53.96999741
H     6.46000004   2.69000006  57.09000015
H     6.98999977   2.10999990  55.47999954
S    13.71999931   2.63000011  50.56999969
C    11.13000011   1.94999993  51.53999710
C    12.50000000   1.95999992  51.66999817
C    13.07999992   1.36999989  52.84000015
C    12.23000050   0.85000002  53.79000092
C    10.82999992   0.75999999  53.69999695
C     9.92999935   0.02000000  54.52999878
C     8.57999992   0.00000000  54.29999924
C     8.07999992   0.63000000  53.11999893
C     8.89000034   1.28000009  52.22999954
C    10.29999924   1.28999996  52.47000122
C    14.52000046   1.58999991  52.90999985
C    15.00000000   2.15000010  51.70000076
C    16.28999901   2.68000007  51.69000244
C     6.58999968   0.56999999  52.87000275
H     6.28450775  -0.30385000  52.29453659
H    10.59999943   2.63000011  50.86999893
H    12.75000000   0.31000000  54.59000015
H    10.32999992  -0.28999999  55.48999786
H     7.92000008  -0.34000003  55.08999634
H     8.47999954   1.74000001  51.32999802
H    16.54000092   3.16000009  50.73999786
H     6.12999964   0.79999995  53.85000229
H     6.25999975   1.47000003  52.35000229
S    17.87999916   1.30999994  55.11000061
C    20.43999863   2.07999992  54.34000015
C    19.09000015   2.14000010  54.10999680
C    18.53999901   2.75999999  52.94000244
C    19.40000153   3.45000005  52.09999847
C    20.79999924   3.26999998  52.18999863
C    21.65999985   3.73000002  51.14999771
C    23.01000214   3.65999985  51.42000198
C    23.61000061   3.05999994  52.56000137
C    22.72999954   2.56000018  53.48999786
C    21.31999969   2.59999990  53.34999847
C    17.11000061   2.50999975  52.81000137
C    16.63999939   1.80000007  53.94000244
C    15.34000015   1.31999993  54.02000046
C    25.12000084   3.05999994  52.68000031
H    25.42602730   2.78955793  53.69059753
H    20.79999924   1.66999996  55.27999878
H    18.97999954   3.91999984  51.22000122
H    21.31000137   4.23999977  50.26000214
H    23.68000031   4.23999977  50.79999924
H    23.05999947   2.16999984  54.45000076
H    14.98000050   0.82000005  54.91000366
H    25.48000145   4.07999992  52.50000000
H    25.52999878   2.37000012  51.93000031
