96

S    17.86000061   6.38000011  59.01000214
C    20.58000183   6.34000015  58.34000015
C    19.27999878   6.11000013  57.97999954
C    18.89999962   5.51000023  56.72999954
C    19.90999985   5.27999973  55.80999756
C    21.24000168   5.66999960  56.06999969
C    22.30999947   5.42000008  55.15999603
C    23.62999916   5.64000034  55.50000000
C    23.92999840   6.28000021  56.72999954
C    22.95000076   6.53999996  57.65999603
C    21.61000061   6.15000010  57.37999725
C    17.46999931   5.36999989  56.55000305
C    16.79000092   5.84999990  57.70000076
C    15.40999985   5.98000002  57.68000031
C    25.36000061   6.71000004  56.95999908
H    25.72838593   6.44787931  57.95180893
H    20.93000031   6.70000029  59.31000137
H    19.65999985   4.59000015  55.00000000
H    22.03000069   4.96000004  54.22000122
H    24.47999954   5.36000013  54.88999939
H    23.05999947   7.14999962  58.54999924
H    14.91000080   6.30999994  58.57999802
H    26.04999924   6.26999950  56.22000122
H    25.48000145   7.76999998  56.72999954
S    14.32999992   4.32000017  54.26000214
C    11.64999962   3.98000002  55.06999969
C    12.93000031   4.42000008  55.33000183
C    13.26000023   5.12000036  56.53999710
C    12.30000019   5.33999968  57.50000000
C    10.97000027   4.86999989  57.34000397
C     9.96000004   5.09000015  58.31999969
C     8.69999981   4.67000008  57.98999786
C     8.34000015   4.07999992  56.73999786
C     9.34000015   3.84000015  55.83000183
C    10.69000053   4.23999977  56.07999802
C    14.67000008   5.49000025  56.59000015
C    15.40999985   5.03999996  55.47000122
C    16.79000092   5.03000021  55.37000275
C     6.94000006   3.60000014  56.44000244
H     6.45087004   4.17419624  55.65314102
H    11.46999931   3.45999980  54.13000107
H    12.51999950   5.78000021  58.47000122
H    10.44999981   5.53999996  59.18000031
H     7.97999954   4.82999992  58.77999878
H     9.11000061   3.25000000  54.94999695
H    17.23999977   4.67999983  54.43999863
H     6.30000019   3.61000013  57.32999802
H     6.94000006   2.56000018  56.10000229
S    18.36000061   6.61999989  52.81000137
C    20.97999954   6.84000015  52.00000000
C    19.70000076   6.46000004  51.65999985
C    19.30999947   5.86999989  50.41999817
C    20.20999908   5.91000032  49.36000061
C    21.54000092   6.30000019  49.61999893
C    22.52000046   6.21000004  48.60000229
C    23.80000114   6.65999985  48.82999802
C    24.20000076   7.13000011  50.11000061
C    23.29000092   7.07000017  51.13999939
C    21.90999985   6.76999998  50.93000031
C    17.88999939   5.55999994  50.48999786
C    17.19000053   5.93999958  51.66999817
C    15.80999947   5.82999992  51.75000000
C    25.62999916   7.49000025  50.45999908
H    26.00822067   7.16886950  51.43052673
H    21.21999931   7.34000015  52.94000244
H    19.96000099   5.38000011  48.43999863
H    22.17000008   5.73999977  47.68000031
H    24.47999954   6.76999998  48.00000000
H    23.51000023   7.21000004  52.18999863
H    15.40999985   6.39999962  52.57999802
H    26.25999832   7.21000004  49.61000061
H    25.78000069   8.56999969  50.40999985
S    14.61999989   4.98000002  48.06999969
C    11.89000034   4.88999987  48.82999802
C    13.21000004   5.13999987  49.13999939
C    13.60999966   5.42999983  50.47999954
C    12.61000061   5.78999996  51.37000275
C    11.25000000   5.55999994  51.09000397
C    10.38000011   5.35000038  52.19999695
C     9.13000011   4.86999989  51.93000031
C     8.60999966   4.76999998  50.61999893
C     9.48999977   4.79999971  49.55999756
C    10.85999966   5.13000011  49.77000427
C    15.06000042   5.40999985  50.63999939
C    15.75000000   5.14999962  49.43000031
C    17.13999939   5.19999981  49.36999893
C     7.23999977   4.15999985  50.43000031
H     6.50820637   4.78522158  49.91845703
H    11.63000011   4.40000010  47.90000153
H    12.79999924   6.01999998  52.41000366
H    10.73999977   5.49000025  53.22000122
H     8.52000046   4.59999990  52.80000305
H     9.19999981   4.28000021  48.64999771
H    17.56999969   5.05999994  48.37999725
H     6.71000004   3.71000004  51.27999878
H     7.36999989   3.38000011  49.66999817
