96

S    17.12000084   6.43000031  58.46000290
C    19.79999924   6.54999971  57.61000061
C    18.51000023   6.12999964  57.39999771
C    18.09999847   5.40999985  56.22000122
C    19.05999947   5.19999981  55.25000000
C    20.40999985   5.58000040  55.44000244
C    21.42999840   5.19999981  54.52999878
C    22.75000000   5.56999969  54.68000031
C    23.12000084   6.21999979  55.87999725
C    22.19000053   6.52999973  56.84999847
C    20.81000137   6.23000050  56.65999985
C    16.67000008   5.14999962  56.17000198
C    16.00000000   5.73999977  57.27000427
C    14.61999989   5.73999977  57.41000366
C    24.53000069   6.71000004  56.12999725
H    25.11889648   5.95791483  56.65504074
H    20.20000076   6.93000031  58.54999924
H    18.78000069   4.55000019  54.41999817
H    21.11000061   4.77999973  53.56999969
H    23.52000046   5.51000023  53.90999603
H    22.46999931   6.93000031  57.81999969
H    14.22999954   6.10000038  58.36000061
H    24.93000031   6.77999973  55.11000061
H    24.53000069   7.69000006  56.60999680
S    13.35000038   4.21000004  54.01000214
C    10.67999935   4.03999996  54.84000397
C    11.96000004   4.48999977  55.07999802
C    12.38999939   5.05999994  56.31999969
C    11.40999985   5.33999968  57.25999832
C    10.10000038   4.82999992  57.11000061
C     9.19999981   4.71000004  58.20999908
C     7.99000025   4.05999994  58.09000015
C     7.63999987   3.40000010  56.88000107
C     8.45000076   3.55999994  55.77999878
C     9.72000027   4.19999981  55.87999725
C    13.83999920   5.13000011  56.43000031
C    14.51000023   4.59000015  55.30000305
C    15.88999939   4.53000021  55.18000031
C     6.34000015   2.64999986  56.81000137
H     5.62926483   3.19015837  56.18455505
H    10.46000004   3.37000012  54.02000046
H    11.82999992   5.59000015  58.22999954
H     9.56999969   5.03999996  59.16999817
H     7.46999979   3.81999993  59.01000214
H     8.23999977   3.12000012  54.80999756
H    16.39000130   4.28000021  54.25000000
H     5.92999983   2.46000004  57.81000137
H     6.44999981   1.64000010  56.38999939
S    16.81999969   6.69000053  52.54000092
C    19.47999954   6.76999998  51.75000000
C    18.18000031   6.43000031  51.43000031
C    17.80999947   5.73999977  50.24000168
C    18.78000069   5.42000008  49.29999924
C    20.12000084   5.78999996  49.54999924
C    21.09000015   5.75999975  48.50999832
C    22.36999893   6.25999975  48.60000229
C    22.72999954   6.72999954  49.88999939
C    21.83000183   6.84999990  50.90999985
C    20.45999908   6.48999977  50.77000046
C    16.36999893   5.56999969  50.17000198
C    15.70000076   6.06999969  51.31000137
C    14.30999947   6.14000034  51.40999603
C    24.13000107   7.28999996  50.05000305
H    24.68068504   6.84659147  50.87960434
H    19.76000023   7.17999983  52.71999741
H    18.53999901   4.97000027  48.34000015
H    20.69999886   5.51000023  47.52999878
H    22.95000076   6.24000025  47.68000031
H    22.06999969   7.26999998  51.88000107
H    13.88000011   6.63999987  52.28000259
H    24.77999878   7.16000032  49.16999817
H    24.02000046   8.38000011  50.04000092
S    13.02000046   4.50000000  48.04000092
C    10.42000008   4.15999985  49.06999969
C    11.68000031   4.71000004  49.19000244
C    12.10000038   5.32999992  50.40000153
C    11.19999981   5.63000011  51.40999603
C     9.90999985   5.05000019  51.29000092
C     8.97999954   5.19000006  52.35000229
C     7.69000006   4.74000025  52.22000122
C     7.26000023   4.09999990  51.02000427
C     8.10999966   3.98999977  49.93999863
C     9.46000004   4.40000010  50.08999634
C    13.53999996   5.53999996  50.40999985
C    14.19000053   5.07999992  49.22999954
C    15.57999992   5.03999996  49.13000107
C     5.84999990   3.54999995  50.96000290
H     5.30433369   3.83346319  50.06000519
H    10.06000042   3.67000008  48.18000031
H    11.50000000   6.05000019  52.36000061
H     9.34000015   5.61999989  53.29000092
H     7.05999947   4.94000006  53.08000183
H     7.73000002   3.60000014  49.00000000
H    16.10000038   4.55000019  48.30999756
H     5.26000023   3.98000002  51.77999878
H     5.88000011   2.46000004  51.10000229
