96

S    17.89999962   6.39999962  58.73000336
C    20.56999969   6.71999979  58.02000046
C    19.34000015   6.19000006  57.71999741
C    18.96999931   5.65999985  56.44000244
C    19.96999931   5.52999973  55.48999786
C    21.25999832   6.01000023  55.79000092
C    22.34000015   5.91000032  54.86000061
C    23.59999847   6.43000031  55.06999969
C    23.88000107   6.98999977  56.33999634
C    22.92000008   7.07000017  57.31999969
C    21.61999893   6.54999971  57.08000183
C    17.53999901   5.52999973  56.25000000
C    16.80999947   5.97000027  57.38999939
C    15.43000031   5.86000013  57.50999832
C    25.29999924   7.46000004  56.59000015
H    25.69181252   6.96845245  57.48048401
H    20.68000031   7.40000010  58.86000061
H    19.75000000   5.10999966  54.51000214
H    22.10000038   5.45000029  53.89999771
H    24.30999947   6.23000050  54.27000046
H    23.16999817   7.53000021  58.27000046
H    14.98999977   5.95000029  58.48999786
H    25.93000031   7.35000038  55.68999863
H    25.19000053   8.55000019  56.65000153
S    14.22999954   4.53000021  53.95999908
C    11.59000015   4.09999990  54.87999725
C    12.86999893   4.55999994  55.10000229
C    13.27000046   5.19999981  56.31999969
C    12.30000019   5.42000008  57.28000259
C    10.95999908   5.00999975  57.08000183
C     9.92999935   5.19000006  58.04999924
C     8.67000008   4.67999983  57.88000107
C     8.28999996   4.17000008  56.60999680
C     9.23999977   3.98000002  55.63000107
C    10.59999943   4.30000019  55.86999893
C    14.70000076   5.46000004  56.38999939
C    15.36000061   5.17000008  55.17000198
C    16.75000000   5.15999985  55.14999771
C     6.88000011   3.65000010  56.43000031
H     6.29011583   4.16170692  55.66954422
H    11.35000038   3.77999997  53.87000275
H    12.50000000   5.82999992  58.26000214
H    10.21999931   5.78999996  58.90999603
H     7.90999985   4.78999996  58.64999771
H     8.94999981   3.44000006  54.72999954
H    17.18000031   4.94000006  54.18000031
H     6.38999987   3.65999985  57.41000366
H     6.86999989   2.59999990  56.12999725
S    14.01999950   2.43000007  51.10000229
C    11.44999981   1.56000006  51.69000244
C    12.79000092   1.51999998  52.01000214
C    13.34000015   0.88999999  53.16999817
C    12.46000099   0.31000000  54.06999969
C    11.06999969   0.41999999  53.86000061
C    10.08999920   0.04000000  54.81999969
C     8.73999977   0.07000000  54.55999756
C     8.25000000   0.65999997  53.36999893
C     9.15999985   1.07000005  52.42000198
C    10.55999947   1.01999998  52.64999771
C    14.77000046   1.12000000  53.29999924
C    15.26999950   1.94000006  52.25000000
C    16.55999947   2.46000004  52.28000259
C     6.78999996   0.87000000  53.04999924
H     6.41900253  -0.02895403  52.55771637
H    11.10999966   2.05999994  50.79000092
H    12.79000092   0.08000001  55.08999634
H    10.47999954  -0.24000001  55.79999924
H     7.97999954  -0.17999999  55.31000137
H     8.88000011   1.69000006  51.56999969
H    16.93000031   3.00999999  51.42000198
H     6.25000000   1.15999997  53.95999908
H     6.75000000   1.76999998  52.42000198
S    18.13999939   1.00999999  55.56999969
C    20.72999954   1.66999996  54.82999802
C    19.37999916   1.77999997  54.56999969
C    18.81999969   2.40999985  53.40999985
C    19.70999908   3.09999990  52.61000061
C    21.09999847   2.96000004  52.78999710
C    22.03000069   3.61000013  51.93999863
C    23.38000107   3.45000005  52.14000320
C    23.92999840   2.56999993  53.11000061
C    23.05000114   1.94999993  53.95999908
C    21.64999962   2.23000002  53.90999603
C    17.40999985   2.07999992  53.33000183
C    16.84999847   1.38000000  54.41999817
C    15.55999947   0.86000001  54.43000031
C    25.43000031   2.42000008  53.18999863
H    25.81418037   2.78283787  54.14333725
H    21.12999916   1.13999999  55.68999863
H    19.30999947   3.65000010  51.75000000
H    21.70000076   4.02999973  50.98999786
H    24.09000015   4.09000015  51.60999680
H    23.47999954   1.21000004  54.62999725
H    15.19000053   0.46000001  55.37000275
H    25.97999954   2.86999989  52.35000229
H    25.72999954   1.36000013  53.15000153
