96

S    17.72999954   6.09000015  58.93000031
C    20.40999985   6.30999994  58.20999908
C    19.13999939   5.89999962  57.88000107
C    18.75000000   5.61999989  56.52999878
C    19.70999908   5.59999990  55.54000092
C    21.04999924   5.91000032  55.86000061
C    22.13999939   5.88000011  54.93999863
C    23.43000031   6.12999964  55.35999680
C    23.75999832   6.52999973  56.68000031
C    22.72000122   6.67999983  57.56999969
C    21.38999939   6.34000015  57.18999863
C    17.30999947   5.46000004  56.38000107
C    16.62999916   5.82000017  57.56999969
C    15.25000000   5.96000004  57.65999603
C    25.20000076   6.93000031  56.90999985
H    25.52102852   6.68744612  57.92301941
H    20.69000053   6.63000011  59.20999908
H    19.44000053   5.44000053  54.50000000
H    21.90000153   5.88000011  53.88000107
H    24.23999977   6.25999975  54.65999985
H    22.95000076   7.07000017  58.55999756
H    14.61999989   6.12999964  58.53000259
H    25.75000000   6.38000011  56.13999939
H    25.29999924   8.01999950  56.79000092
S    14.21000004   4.65999985  53.95999908
C    11.47999954   4.46000004  54.86000061
C    12.81000042   4.75000000  55.06000137
C    13.14000034   5.19999981  56.38000107
C    12.15999985   5.46000004  57.31999969
C    10.77999973   5.26999998  57.04999924
C     9.77000046   5.38999987  58.04999924
C     8.47000027   5.09000015  57.74000168
C     8.14999962   4.38000011  56.55000305
C     9.10000038   4.19999981  55.58000183
C    10.43000031   4.65000010  55.79999924
C    14.55000019   5.51000023  56.52999878
C    15.21999931   5.10999966  55.34999847
C    16.60000038   5.00999975  55.26000214
C     6.69000053   4.11999989  56.25000000
H     6.20591831   4.81764746  55.56658936
H    11.16000080   3.88999987  54.00000000
H    12.44999981   5.88999987  58.27000046
H     9.90999985   5.75999975  59.06000137
H     7.65999985   5.53999996  58.30999756
H     9.00000000   3.84000015  54.55999756
H    17.12000084   4.94000006  54.31000137
H     6.17999983   4.03999996  57.22000122
H     6.60000038   3.10999990  55.83000183
S    18.09999847   6.86999989  52.48000336
C    20.76000023   7.04999971  51.75000000
C    19.50000000   6.61999989  51.42000198
C    19.12999916   6.11000013  50.13000107
C    20.15000153   5.88999987  49.22999954
C    21.50000000   6.15000010  49.59000015
C    22.49000168   6.17000008  48.56999969
C    23.77000046   6.60000038  48.79000092
C    24.11000061   7.22000027  50.01999664
C    23.12999916   7.32999992  50.97999954
C    21.80999947   6.83000040  50.81999969
C    17.67000008   6.10000038  50.04000092
C    16.94000053   6.51000023  51.18999863
C    15.55999947   6.61000013  51.20999908
C    25.48999977   7.81000042  50.20000076
H    26.06280518   7.10990477  50.80816269
H    20.93000031   7.60999966  52.67000198
H    19.96000099   5.55000019  48.20999908
H    22.15999985   5.78999996  47.60000229
H    24.51000023   6.54999971  47.98999786
H    23.36000061   7.76000023  51.95000076
H    15.00000000   6.80999994  52.11999893
H    25.84000015   8.10999966  49.20999908
H    25.38999939   8.73999977  50.77999878
S    14.47000027   5.01999950  47.75000000
C    11.77999973   4.72000027  48.62999725
C    13.07000065   5.13999987  48.83999634
C    13.43999958   5.68000031  50.12000275
C    12.53000069   5.80999947  51.14999771
C    11.18999958   5.38999987  50.94999695
C    10.19999981   5.42000008  51.97000122
C     8.88000011   5.13999987  51.69000244
C     8.56999969   4.48000002  50.47000122
C     9.52000046   4.30000019  49.48999786
C    10.82999992   4.82999992  49.66999817
C    14.84000015   6.06999969  50.13000107
C    15.57000065   5.65000010  49.00000000
C    16.95999908   5.69000006  48.90999603
C     7.25000000   3.75999975  50.34000015
H     6.58105516   4.24391747  49.62835693
H    11.47999954   4.33999968  47.65999603
H    12.88000011   6.15999985  52.11000061
H    10.44000053   5.80999947  52.95999908
H     8.10000038   5.27999973  52.43999863
H     9.31999969   3.68000007  48.61999893
H    17.52000046   5.42999983  48.02000046
H     6.81999969   3.71000004  51.35000229
H     7.40000010   2.70000005  50.10000229
