96

S    17.90999985   6.50000000  58.85000229
C    20.52999878   6.86999989  57.84999847
C    19.23999977   6.43000031  57.68000031
C    18.90999985   5.75999975  56.45000076
C    19.88000107   5.51000023  55.50000000
C    21.22999954   5.86999989  55.70999908
C    22.19000053   5.66999960  54.68000031
C    23.44000053   6.24000025  54.80999756
C    23.78999901   6.94999981  55.98999786
C    22.89999962   7.04999971  57.02999878
C    21.55999947   6.56000042  56.91999817
C    17.47999954   5.47999954  56.45999908
C    16.79000092   5.82000017  57.64999771
C    15.39999962   5.84999990  57.70000076
C    25.17999840   7.49000025  56.25000000
H    25.70507240   6.92944956  57.02342224
H    20.85000038   7.44999981  58.70999908
H    19.52999878   5.13000011  54.54999924
H    21.90999985   5.01999950  53.86000061
H    24.20999908   6.07999992  54.06000137
H    23.12999916   7.60999966  57.93000031
H    14.94999981   6.19999981  58.61999893
H    25.69999886   7.44999981  55.28999710
H    25.10000038   8.56999969  56.40999603
S    14.42000008   4.19000006  54.15000153
C    11.71000004   4.07999992  54.91000366
C    12.98999977   4.55999994  55.13000107
C    13.25000000   5.23999977  56.36000061
C    12.20000076   5.55999994  57.18999863
C    10.88000107   5.21000004  56.84999847
C     9.71000004   5.46999979  57.62000275
C     8.43999958   4.97000027  57.41000366
C     8.23999977   4.09000015  56.31999969
C     9.30999947   3.77999997  55.51000214
C    10.57999992   4.38000011  55.70000076
C    14.68999958   5.36000013  56.59999847
C    15.39999962   4.80999994  55.50000000
C    16.77999878   4.94000006  55.37000275
C     6.89000034   3.45999980  56.06999969
H     6.39895582   4.00797653  55.26582336
H    11.51999950   3.31999993  54.15000153
H    12.48999977   6.02999973  58.13000107
H     9.82999992   5.97000027  58.56999969
H     7.67000008   5.07000017  58.16999817
H     9.13999939   3.14000010  54.65000153
H    17.26000023   4.76000023  54.41999817
H     6.25000000   3.44000006  56.95999908
H     6.86999989   2.42000008  55.70999908
S    14.63999939   2.34999990  51.12999725
C    12.03999996   1.49000001  51.84999847
C    13.40000057   1.53999996  52.09000015
C    14.00000000   0.82000005  53.18000031
C    13.17999935   0.24000001  54.13999939
C    11.77999973   0.19999999  54.00000000
C    10.84000015  -0.41999999  54.87999725
C     9.47000027  -0.31000000  54.79999924
C     8.96000004   0.48000002  53.74000168
C     9.82999992   1.00000000  52.80000305
C    11.23999977   0.90999997  52.87000275
C    15.43000031   1.05999994  53.26000214
C    15.95999908   1.85000002  52.21000290
C    17.27000046   2.31999993  52.15000153
C     7.46999979   0.67000002  53.56999969
H     7.04305887   0.25017476  52.65919495
H    11.54000092   2.01999998  51.04999924
H    13.56999969  -0.27000001  55.01999664
H    11.28999901  -1.13000000  55.56999969
H     8.71999931  -0.68000007  55.47999954
H     9.47000027   1.51999998  51.91999817
H    17.56999969   2.79999995  51.22000122
H     6.88000011   0.32000002  54.41999817
H     7.26999998   1.75000000  53.53000259
S    18.89999962   0.73000002  55.41999817
C    21.51000023   1.48000002  54.48999786
C    20.13999939   1.50000000  54.40999985
C    19.55999947   2.11999989  53.26000214
C    20.30999947   2.73999977  52.27000427
C    21.70999908   2.84000015  52.43000031
C    22.47999954   3.61999989  51.51000214
C    23.81999969   3.79999995  51.73999786
C    24.40999985   3.03999996  52.77999878
C    23.71000099   2.30999994  53.70999908
C    22.30999947   2.09999990  53.50999832
C    18.11000061   1.94999993  53.20000076
C    17.61000061   1.28999996  54.34000015
C    16.27000046   0.90999997  54.36999893
C    25.79000092   3.50000000  53.20999908
H    26.15564537   2.86908412  54.02015305
H    22.03000069   1.01999998  55.33000183
H    19.89999962   3.35999990  51.46999741
H    21.96000099   4.03999996  50.65999985
H    24.37999916   4.55000019  51.18999863
H    24.14999962   2.02999997  54.66999817
H    15.88000107   0.43000001  55.27000046
H    25.75000000   4.55999994  53.48999786
H    26.47000122   3.38999987  52.35000229
