96

S    18.25000000   6.34999990  58.88999939
C    20.86999893   6.76999998  58.08000183
C    19.64999962   6.21000004  57.81000137
C    19.31999969   5.52999973  56.59000015
C    20.29999924   5.36999989  55.63000107
C    21.59000015   5.91000032  55.83000183
C    22.69000053   5.73999977  54.94999695
C    23.94000053   6.25999975  55.20000076
C    24.23000145   6.88000011  56.45000076
C    23.15999985   7.11000013  57.28000259
C    21.83000183   6.67000008  57.02999878
C    17.88999939   5.29999971  56.44000244
C    17.19000053   5.73999977  57.60000229
C    15.80999947   5.73000002  57.67000198
C    25.58000183   7.42999983  56.86999893
H    25.97930527   6.95939207  57.76843262
H    21.17000198   7.16000032  59.05000305
H    20.10000038   4.63000011  54.86000061
H    22.39999962   5.18000031  54.06000137
H    24.79000092   6.19000006  54.52999878
H    23.36999893   7.68000031  58.18000031
H    15.27999973   5.92000008  58.60000229
H    26.35000038   7.32999992  56.10000229
H    25.52000046   8.52000046  56.98999786
S    14.67000008   4.42999983  54.10999680
C    11.96000004   4.44000006  54.75000000
C    13.25000000   4.76000023  55.12000275
C    13.61999989   5.29999971  56.39999771
C    12.60000038   5.46999979  57.30999756
C    11.26000023   5.10999966  57.01000214
C    10.26999950   4.97000027  58.02000046
C     8.96000004   4.72000027  57.68000031
C     8.61999989   4.26000023  56.38000107
C     9.59000015   4.25000000  55.40000153
C    10.92000008   4.67000008  55.68000031
C    15.06000042   5.36000013  56.53999710
C    15.77999973   4.94000006  55.40000153
C    17.15999985   5.07000017  55.27000046
C     7.30999994   3.56999993  56.09000397
H     6.70378399   4.15482044  55.39820480
H    11.71000004   3.94000006  53.81999969
H    12.84999943   5.69999981  58.34000015
H    10.59999943   5.12000036  59.03999710
H     8.14999962   4.55999994  58.40000153
H     9.38000011   3.91000009  54.38000107
H    17.63000107   4.86000013  54.31000137
H     6.76000023   3.58000016  57.04000092
H     7.40000010   2.53999996  55.70999908
S    14.92000008   2.56999993  51.12999725
C    12.30000019   1.75000000  51.70000076
C    13.64999962   1.66999996  51.98999786
C    14.13000011   1.03999996  53.18000031
C    13.22999954   0.31000000  53.94000244
C    11.84000015   0.32999998  53.68999863
C    10.90000057  -0.20999999  54.61000061
C     9.53999996  -0.08000001  54.40999985
C     9.10000038   0.63000000  53.26000214
C     9.96999931   1.31999993  52.44999695
C    11.38000011   1.14999998  52.58999634
C    15.55999947   1.24000001  53.36000061
C    16.11999893   2.02999997  52.32999802
C    17.46999931   2.37000012  52.34000397
C     7.59000015   0.78000003  53.22999954
H     7.01048470   0.24341202  52.47877502
H    11.97000027   2.38000011  50.87999725
H    13.55000019  -0.06000000  54.91000366
H    11.30000019  -0.69999999  55.48999786
H     8.92000008  -0.25000000  55.27999878
H     9.52000046   1.90999997  51.65999985
H    17.87999916   2.89999986  51.47999573
H     7.23000002   0.81000000  54.27000046
H     7.50999975   1.86000001  53.02000046
S    18.86999893   0.78000003  55.70000076
C    21.52000046   1.49000001  55.04000092
C    20.17000008   1.58999991  54.79999924
C    19.70000076   2.30999994  53.64999771
C    20.59000015   2.75999999  52.69000244
C    21.97999954   2.63000011  52.91999817
C    22.95000076   3.00999999  51.95000076
C    24.30000114   2.94999981  52.16999817
C    24.76000023   2.38000011  53.37999725
C    23.87000084   1.80000007  54.26000214
C    22.46999931   1.99000001  54.10999680
C    18.27999878   2.05999994  53.43999863
C    17.72999954   1.19000006  54.40000153
C    16.40999985   0.75999999  54.36000061
C    26.22999954   2.42000008  53.73000336
H    26.40822220   3.36101675  54.25041199
H    21.88999939   0.96000004  55.90999985
H    20.25000000   3.12000012  51.72000122
H    22.56000137   3.35999990  50.98999786
H    24.99000168   3.38000011  51.44000244
H    24.15999985   1.28000009  55.17000198
H    15.98000050   0.09999999  55.12000275
H    26.71999931   2.47000003  52.76000214
H    26.59000015   1.46000004  54.13999939
