96

S    17.60000038   6.17000008  58.48999786
C    20.27000046   6.19000006  57.83000183
C    19.00000000   5.79999971  57.47000122
C    18.53999901   5.32000017  56.19999695
C    19.51000023   5.15999985  55.22999573
C    20.86000061   5.42000008  55.56999969
C    21.84999847   5.28999996  54.54999924
C    23.19000053   5.51999998  54.77000427
C    23.61000061   5.86999989  56.06999969
C    22.65000153   6.21000004  57.00000000
C    21.25999832   5.98000002  56.83000183
C    17.09000015   5.36000013  56.06999969
C    16.39999962   5.75999975  57.23999786
C    15.01999950   5.86000013  57.35000229
C    25.02000046   6.19000006  56.52000046
H    25.38209724   5.63620329  57.38619614
H    20.55999947   6.40999985  58.85000229
H    19.23999977   4.92000008  54.20000076
H    21.61000061   4.86000013  53.57999802
H    23.94000053   5.55999994  53.99000168
H    22.88999939   6.77999973  57.88999939
H    14.45000076   6.02999973  58.26000214
H    25.65000153   6.02999973  55.63999939
H    25.12000084   7.26000023  56.72999954
S    13.81999969   4.79999971  53.68999863
C    11.14999962   4.72000027  54.43999863
C    12.43999958   5.05000019  54.78000259
C    12.84000015   5.44000053  56.10000229
C    11.84000015   5.59000015  57.04000092
C    10.50000000   5.26000023  56.75000000
C     9.46000004   5.31000042  57.71999741
C     8.11999989   5.22000027  57.43000031
C     7.76999998   4.81999969  56.11999893
C     8.75000000   4.65999985  55.17000198
C    10.13000011   4.92999983  55.40000153
C    14.27999973   5.58000040  56.18999863
C    14.94999981   5.21000004  54.99000168
C    16.34000015   5.19999981  54.89999771
C     6.38000011   4.26000023  55.89000320
H     5.98084116   4.74469328  54.99902344
H    10.84000015   4.30000019  53.47999954
H    11.98999977   6.10000038  57.98999786
H     9.81999969   5.68000031  58.68000031
H     7.40000010   5.05000019  58.22999954
H     8.34999943   4.23000002  54.25000000
H    16.87999916   5.05000019  53.97999573
H     5.69000006   4.55000019  56.69000244
H     6.28000021   3.17000008  55.83000183
S    18.09000015   6.80999994  52.18999863
C    20.71000099   6.90000010  51.45999908
C    19.45000076   6.47000027  51.11000061
C    19.06999969   5.92999983  49.84000397
C    20.09000015   5.84999990  48.90999603
C    21.40999985   6.26999950  49.18000031
C    22.46000099   6.48000002  48.25000000
C    23.74000168   6.88000011  48.56999969
C    24.10000038   7.07000017  49.93000031
C    23.06999969   7.11000013  50.84999847
C    21.73999977   6.74000025  50.50000000
C    17.61999893   5.86000013  49.72999954
C    16.97000122   6.23000050  50.93999863
C    15.59999943   6.46000004  51.00999832
C    25.48999977   7.49000025  50.34000015
H    25.85286140   6.84965658  51.14398575
H    20.81000137   7.27999973  52.47000122
H    19.88000107   5.78999996  47.84000015
H    22.17000008   6.50000000  47.19999695
H    24.40999985   7.13000011  47.76000214
H    23.22999954   7.53000021  51.84000015
H    15.13000011   6.72999954  51.95000076
H    26.07999992   7.57999992  49.41999817
H    25.59999847   8.53999996  50.65999985
S    14.27999973   4.94000006  47.62000275
C    11.57999992   4.85000038  48.47000122
C    12.89999962   5.18000031  48.69999695
C    13.34000015   5.73999977  49.93999863
C    12.38000011   6.05000019  50.90000153
C    11.00999928   5.79999971  50.65000153
C    10.03000069   6.05000019  51.65000153
C     8.71000004   5.73000002  51.40999603
C     8.34999943   5.07000017  50.20999908
C     9.26000023   4.69999981  49.22999954
C    10.57999992   5.18000031  49.41999817
C    14.77000046   6.01999998  49.98000336
C    15.43000031   5.65999985  48.76999664
C    16.79999924   5.55999994  48.62999725
C     6.93000031   4.65999985  49.89999771
H     6.52559376   5.12116480  48.99895096
H    11.46000004   4.26999998  47.56000137
H    12.65999985   6.54999971  51.83000183
H    10.24000072   6.58999968  52.56999969
H     7.99000025   6.14000034  52.11000061
H     9.02000046   4.21999979  48.29000092
H    17.19000053   5.21000004  47.68000031
H     6.17999983   4.88000011  50.66999817
H     7.02000046   3.56999993  49.87999725
