96

S    17.71000099   6.77999973  58.61999893
C    20.30999947   7.13999987  57.88999939
C    19.11999893   6.52999973  57.56999969
C    18.78000069   5.84999990  56.35000229
C    19.78000069   5.88000011  55.38999939
C    21.04999924   6.42000008  55.66999817
C    22.10000038   6.37000036  54.69999695
C    23.38999939   6.76999998  54.95999908
C    23.67000198   7.21000004  56.27999878
C    22.70999908   7.36000013  57.25000000
C    21.37000084   6.94999981  56.97000122
C    17.35999870   5.53999996  56.31999969
C    16.62999916   5.98999977  57.44999695
C    15.24000072   6.09000015  57.52999878
C    25.05000114   7.53000021  56.81000137
H    25.75437737   6.72601414  56.59655380
H    20.58000183   7.64999962  58.81000137
H    19.65999985   5.23000002  54.52999878
H    21.96000099   5.75999975  53.81999969
H    24.28999901   6.56000042  54.38000107
H    22.89999962   7.75000000  58.25000000
H    14.81999969   6.67000008  58.34000015
H    25.45000076   8.42000008  56.31000137
H    25.06000137   7.69000006  57.90000153
S    14.04999924   4.53999996  54.13000107
C    11.33999920   4.53000021  54.86999893
C    12.63000011   4.92999983  55.12000275
C    12.98999977   5.46999979  56.39999771
C    12.00000000   5.56999969  57.36999893
C    10.67999935   5.09000015  57.18999863
C     9.70000076   5.00000000  58.22000122
C     8.40999985   4.59999990  57.97000122
C     8.11999989   4.05999994  56.69000244
C     9.06999969   3.98999977  55.70000076
C    10.36000061   4.55000019  55.90000153
C    14.44000053   5.55999994  56.52000046
C    15.15999985   5.07000017  55.40000153
C    16.54999924   5.07000017  55.27999878
C     6.76000023   3.49000001  56.35000229
H     6.07036734   4.20096111  55.89498520
H    11.09000015   3.79999995  54.09999847
H    12.28000069   5.61999989  58.40999985
H     9.81999969   5.36999989  59.23999786
H     7.65999985   4.65999985  58.75000000
H     8.89000034   3.60000014  54.69999695
H    16.97000122   4.59000015  54.40000153
H     6.21999979   3.02999997  57.18999863
H     6.77999973   2.63000011  55.65999985
S    17.53000069   6.56000042  52.56000137
C    20.22999954   6.67999983  51.77000046
C    18.92000008   6.35999966  51.47999573
C    18.50000000   5.93999958  50.18000031
C    19.45000076   5.73000002  49.20999908
C    20.79999924   6.10000038  49.45000076
C    21.73000145   6.05999994  48.36999893
C    23.01000214   6.53999996  48.52000427
C    23.38999939   7.07000017  49.78000259
C    22.53999901   7.07000017  50.86999893
C    21.19999886   6.60000038  50.72999954
C    17.05000114   5.82999992  50.08999634
C    16.36000061   6.11000013  51.30000305
C    14.98999977   6.28000021  51.45999908
C    24.77999878   7.63000011  49.95999908
H    25.31357193   7.06085634  50.72123337
H    20.56999969   7.03999996  52.74000168
H    19.26000023   5.51999998  48.15999985
H    21.32999802   5.73000002  47.41000366
H    23.61999893   6.70000029  47.63999939
H    22.92000008   7.50000000  51.79000092
H    14.50000000   6.71000004  52.32999802
H    25.29000092   7.44000006  49.01000214
H    24.79999924   8.71999931  50.11000061
S    13.76999950   5.28999996  47.76000214
C    11.05000019   5.18000031  48.59000397
C    12.36999989   5.46999979  48.82999802
C    12.81000042   5.86999989  50.13000107
C    11.87000084   6.06999969  51.12999725
C    10.52000046   5.69000006  50.93999863
C     9.56999969   5.80999947  51.98999786
C     8.30000019   5.32999992  51.79000092
C     7.86999989   4.84000015  50.52999878
C     8.78000069   4.69999981  49.50000000
C    10.11000061   5.19999981  49.65000153
C    14.25000000   6.01999998  50.31000137
C    14.88000011   5.66999960  49.09000015
C    16.27000046   5.58000040  48.95999908
C     6.54999971   4.13000011  50.34999847
H     5.94059134   4.59601784  49.57569122
H    10.77999973   4.73000002  47.63999939
H    12.10999966   6.48000002  52.11000061
H     9.94999981   6.21000004  52.93000031
H     7.68000031   5.18000031  52.67000198
H     8.48999977   4.17000008  48.60000229
H    16.75000000   5.45000029  47.98999786
H     6.09000015   4.09999990  51.33999634
H     6.60000038   3.07000017  50.05000305
