96

S    17.36999893   6.09000015  58.40000153
C    20.03999901   6.40999985  57.61000061
C    18.77000046   5.97000027  57.31999969
C    18.47999954   5.40000010  56.04000092
C    19.48999977   5.22000027  55.11000061
C    20.79000092   5.72000027  55.35999680
C    21.84999847   5.53999996  54.41999817
C    23.08000183   6.05000019  54.77000427
C    23.26999855   6.84000015  55.93999863
C    22.26000023   7.09000015  56.84000015
C    21.05999947   6.34999990  56.62000275
C    17.05999947   5.10999966  55.96000290
C    16.31000137   5.51999998  57.09000015
C    14.93000031   5.52999973  57.22999954
C    24.69000053   7.21000004  56.31999969
H    25.08786011   6.64873362  57.16545105
H    20.22999954   6.80999994  58.60000229
H    19.19000053   4.85000038  54.13999939
H    21.64999962   5.13000011  53.43999863
H    23.97999954   5.86999989  54.19000244
H    22.43999863   7.57000017  57.80000305
H    14.47999954   5.66999960  58.20999908
H    25.34000015   7.00999975  55.45999908
H    24.63999939   8.27000046  56.60999680
S    13.93000031   3.60000014  53.92000198
C    11.26999950   3.30000019  54.75000000
C    12.50000000   3.86999989  54.93999863
C    12.88000011   4.65999985  56.07999802
C    11.87999916   4.88000011  57.00000000
C    10.57000065   4.38000011  56.81000137
C     9.48000050   4.59000015  57.70000076
C     8.21000004   4.15000010  57.41000366
C     7.88999987   3.30999994  56.31000137
C     8.94999981   2.96000004  55.50000000
C    10.22999954   3.54999995  55.68000031
C    14.28999996   5.01999950  56.09000397
C    15.01000023   4.55000019  54.95999908
C    16.39000130   4.55000019  54.86000061
C     6.50000000   2.76999998  56.05999756
H     6.00986290   3.33117104  55.26441574
H    11.02000046   2.84000015  53.79000092
H    12.05999947   5.51999998  57.85999680
H     9.70000076   5.18000031  58.59000397
H     7.46000004   4.40000010  58.15000153
H     8.71000004   2.10999990  54.86000061
H    17.00000000   4.07999992  54.09000015
H     5.91000032   2.79000020  56.97999954
H     6.52999973   1.71000004  55.77000046
S    17.85000038   6.57000017  52.50000000
C    20.48999977   6.89000034  51.83000183
C    19.30999947   6.23000050  51.56999969
C    19.00000000   5.49000025  50.38000107
C    20.00000000   5.38000011  49.43000031
C    21.18999863   6.14000034  49.58000183
C    22.20999908   6.07999992  48.59000397
C    23.38999939   6.77999973  48.73000336
C    23.64000130   7.55000019  49.89999771
C    22.70000076   7.53000021  50.90000153
C    21.42999840   6.90999985  50.77000046
C    17.56999969   5.26999998  50.20000076
C    16.81999969   5.91000032  51.22000122
C    15.44000053   5.84999990  51.38000107
C    25.02000046   8.11999989  50.13999939
H    25.49632454   7.60102034  50.97179031
H    20.62000084   7.42999983  52.76000214
H    19.96000099   4.90000010  48.44999695
H    22.04000092   5.40999985  47.75000000
H    24.18999863   6.69000053  48.01000214
H    22.79000092   8.06999969  51.84000015
H    14.94999981   6.12999964  52.29999924
H    25.65000153   8.07999992  49.23999786
H    24.90999985   9.13999939  50.51000214
S    14.35999966   4.21000004  47.94000244
C    11.71000004   4.13000011  48.61999893
C    12.94999981   4.61000013  48.94000244
C    13.27999973   5.07999992  50.26000214
C    12.25000000   5.13999987  51.17000198
C    10.93999958   4.67000008  50.89000320
C     9.92999935   4.69999981  51.88999939
C     8.63000011   4.38000011  51.59999847
C     8.30000019   3.95000005  50.28999710
C     9.28999996   3.84999990  49.34000015
C    10.64000034   4.26000023  49.54000092
C    14.70999908   5.32000017  50.30000305
C    15.44999981   4.79999971  49.20000076
C    16.84000015   4.77999973  49.12000275
C     6.84999990   3.60000014  50.02999878
H     6.44469976   4.17595339  49.19806671
H    11.63000011   3.56999993  47.69000244
H    12.48000050   5.50000000  52.16999817
H    10.42000008   4.85000038  52.84999847
H     7.90000010   4.28000021  52.41000366
H     9.01000023   3.40000010  48.39000320
H    17.28999901   4.50000000  48.16999817
H     6.15000010   3.71000004  50.86000061
H     6.89000034   2.53999996  49.77000427
