96

S    17.70000076   6.21999979  58.75999832
C    20.38999939   6.54999971  57.93000031
C    19.07999992   6.23000050  57.63999939
C    18.67000008   5.75999975  56.35000229
C    19.63999939   5.55000019  55.38999939
C    21.01000023   5.72000027  55.70999908
C    22.03000069   5.42999983  54.77000427
C    23.31000137   5.86000013  55.00999832
C    23.64999962   6.57999992  56.18999863
C    22.70999908   6.84000015  57.15999985
C    21.40000153   6.32999992  56.95999908
C    17.22999954   5.63000011  56.20999908
C    16.56999969   5.88999987  57.43000031
C    15.21000004   6.19999981  57.44999695
C    25.02000046   7.14999962  56.45999908
H    25.54437447   6.77443457  57.33868027
H    20.58000183   6.81999969  58.95999908
H    19.43000031   5.23999977  54.36999893
H    21.68999863   4.97000027  53.83999634
H    24.06999969   5.77000046  54.23999786
H    22.93000031   7.42000008  58.06000137
H    14.73999977   6.42000008  58.40000153
H    25.62000084   7.09999990  55.54000092
H    25.05000114   8.23999977  56.63000107
S    14.01999950   4.61999989  53.93000031
C    11.38000011   4.30000019  54.88999939
C    12.65999985   4.78999996  55.06000137
C    13.03999996   5.42000008  56.29000092
C    12.10000038   5.56999969  57.29000092
C    10.75000000   5.14999962  57.14000320
C     9.77000046   5.46000004  58.11999893
C     8.52000046   4.94999981  57.85999680
C     8.10999966   4.46000004  56.59000015
C     9.03999996   4.23999977  55.59999847
C    10.39999962   4.59000015  55.86000061
C    14.47000027   5.69000006  56.38000107
C    15.10000038   5.25000000  55.19000244
C    16.47999954   5.28999996  55.06999969
C     6.72999954   3.88000011  56.38000107
H     6.16585064   4.17278624  55.49449921
H    11.10000038   3.81000018  53.95999908
H    12.46999931   5.92000008  58.23999786
H     9.98000050   5.91000032  59.09000015
H     7.86999989   4.84000015  58.73000336
H     8.71999931   3.84999990  54.64000320
H    17.05000114   5.00000000  54.19000244
H     6.21000004   4.15999985  57.30999756
H     6.77999973   2.77999997  56.40999603
S    18.20999908   7.03999996  52.65999603
C    20.90999985   7.20000029  51.86000061
C    19.62000084   6.77999973  51.62000275
C    19.19000053   6.25000000  50.35999680
C    20.06000137   6.14000034  49.29999924
C    21.40000153   6.57999992  49.45999908
C    22.34000015   6.34000015  48.40999985
C    23.64000130   6.76000023  48.56999969
C    24.02000046   7.23000002  49.86000061
C    23.15000153   7.40000010  50.90999985
C    21.77000046   7.09000015  50.75000000
C    17.75000000   6.01000023  50.27999878
C    17.06999969   6.44999981  51.44000244
C    15.69000053   6.57000017  51.47999573
C    25.38000107   7.86999989  49.95999908
H    25.95546341   7.56450701  50.83385086
H    21.21000099   7.59000015  52.83000183
H    19.72999954   5.59999990  48.40999985
H    21.97999954   5.77000046  47.56000137
H    24.34000015   6.58999968  47.76000214
H    23.48999977   7.85000038  51.84000015
H    15.24000072   6.61999989  52.45999908
H    25.95999908   7.59999990  49.06999969
H    25.26000023   8.96000004  49.97000122
S    14.55999947   4.69000006  48.15000153
C    11.87000084   4.67000008  48.88000107
C    13.15000057   5.09999990  49.13999939
C    13.52000046   5.86999989  50.28999710
C    12.56999969   6.09000015  51.26999664
C    11.30000019   5.47999954  51.16000366
C    10.25000000   5.68000031  52.09999847
C     9.02999973   5.09000015  51.90999985
C     8.67999935   4.41000032  50.70999908
C     9.67000008   4.15999985  49.79000092
C    10.93000031   4.80999994  49.93000031
C    14.93999958   6.15999985  50.37000275
C    15.62000084   5.52999973  49.29000092
C    17.01000023   5.46000004  49.22999954
C     7.34000015   3.71000004  50.65999985
H     6.54848814   4.38028955  50.32485580
H    11.57999992   4.15999985  47.97000122
H    12.74000072   6.65999985  52.18000031
H    10.44000053   6.26999950  53.00000000
H     8.26000023   5.09999990  52.68000031
H     9.46000004   3.61000013  48.88000107
H    17.53999901   5.05999994  48.36999893
H     7.03999996   3.28000021  51.62000275
H     7.42999983   2.82999992  50.00999832
