96

S    17.67000008   6.21999979  58.74000168
C    20.30999947   6.19000006  58.11000061
C    19.04999924   5.88000011  57.68000031
C    18.73999977   5.51000023  56.32999802
C    19.73999977   5.42999983  55.37000275
C    21.05999947   5.71000004  55.79999924
C    22.11999893   5.63000011  54.86000061
C    23.38999939   6.01999998  55.20999908
C    23.68999863   6.48999977  56.52000046
C    22.70000076   6.44000006  57.48000336
C    21.35000038   6.11999989  57.15000153
C    17.28999901   5.46000004  56.18999863
C    16.60000038   5.88000011  57.36000061
C    15.21999931   6.01000023  57.35000229
C    25.10999870   6.97000027  56.72000122
H    25.61541748   6.41475296  57.51016235
H    20.45999908   6.52999973  59.13000107
H    19.54000092   5.26000023  54.31999969
H    21.86000061   5.36999989  53.82999802
H    24.11000061   6.24000025  54.43000031
H    22.88999939   6.78999996  58.48999786
H    14.77000046   6.43000031  58.25000000
H    25.85000038   6.84999990  55.91999817
H    25.03000069   8.05000019  56.86999893
S    14.09000015   4.74000025  53.74000168
C    11.39999962   4.46000004  54.55999756
C    12.64999962   4.99000025  54.75000000
C    13.07000065   5.55000019  56.00000000
C    12.07999992   5.69000006  56.95999908
C    10.73999977   5.31000042  56.72999954
C     9.77999973   5.26999998  57.77999878
C     8.50000000   4.81999969  57.54000092
C     8.03999996   4.46999979  56.24000168
C     8.98999977   4.34999990  55.25000000
C    10.34000015   4.73000002  55.47000122
C    14.50000000   5.64000034  56.20999908
C    15.19999981   5.23999977  55.04000092
C    16.59000015   5.25000000  55.00000000
C     6.61999989   4.00999975  56.04000092
H     6.03914452   4.55543709  55.29622269
H    11.11999989   3.84999990  53.70999908
H    12.25000000   5.95000029  58.00000000
H    10.03000069   5.51999998  58.81000137
H     7.88000011   4.59000015  58.39000320
H     8.69000053   3.95000005  54.27999878
H    17.25000000   5.09000015  54.15000153
H     5.98999977   4.11999989  56.93000031
H     6.58999968   2.96999979  55.68999863
S    17.70000076   7.07000017  52.41000366
C    20.36999893   6.63000011  51.83000183
C    19.05999947   6.47000027  51.45000076
C    18.70000076   6.02999973  50.13999939
C    19.63000107   5.84000015  49.13000107
C    20.94000053   6.23000050  49.47999954
C    21.91999817   6.34999990  48.44999695
C    23.25000000   6.57000017  48.70999908
C    23.59999847   7.00000000  50.01999664
C    22.67000008   7.07999992  51.03000259
C    21.35000038   6.61000013  50.79999924
C    17.25000000   6.01000023  50.00000000
C    16.59000015   6.60000038  51.11000061
C    15.21000004   6.51000023  51.27999878
C    25.06000137   7.32999992  50.22999573
H    25.52148819   6.81881523  51.07487488
H    20.61000061   6.97000027  52.84000015
H    19.29999924   5.56999969  48.13000107
H    21.60000038   5.97000027  47.48000336
H    23.87000084   6.46000004  47.83000183
H    22.98000145   7.55000019  51.95999908
H    14.77000046   6.84000015  52.21000290
H    25.55999947   7.23000002  49.26000214
H    25.15000153   8.40999985  50.41999817
S    13.93000031   4.90000010  47.88999939
C    11.26000023   4.77999973  48.74000168
C    12.56999969   5.09999990  49.01000214
C    12.97000027   5.73000002  50.22999573
C    12.03999996   5.92999983  51.24000168
C    10.73999977   5.40999985  51.07999802
C     9.73999977   5.55999994  52.09000015
C     8.47000027   5.05999994  51.91999817
C     8.10000038   4.46999979  50.68999863
C     8.98999977   4.41000032  49.64000320
C    10.32999992   4.86999989  49.80999756
C    14.40999985   5.95000029  50.27999878
C    15.06999969   5.47999954  49.10999680
C    16.45000076   5.51000023  48.95999908
C     6.71999979   3.88999987  50.50000000
H     6.30007648   4.33127546  49.59609604
H    10.98000050   4.28999996  47.81999969
H    12.31999969   6.56000042  52.08000183
H     9.85999966   6.05999994  53.04999924
H     7.68000031   5.18000031  52.65999603
H     8.75000000   3.96000004  48.68999863
H    16.97000122   4.97000027  48.16999817
H     6.10000038   4.15000010  51.37000275
H     6.71000004   2.79000020  50.50000000
