96

S    17.59000015   5.88999987  59.13999939
C    20.27000046   6.30999994  58.36000061
C    19.02000046   5.80999947  58.09999847
C    18.64999962   5.38999987  56.77999878
C    19.62000084   5.51000023  55.79999924
C    20.86999893   6.11999989  56.04000092
C    21.88999939   6.12999964  55.04000092
C    23.15999985   6.60000038  55.30000305
C    23.51000023   6.98000002  56.62000275
C    22.60000038   6.91999960  57.64999771
C    21.28999901   6.44999981  57.37999725
C    17.20999908   5.26999998  56.56000137
C    16.52000046   5.66999960  57.72999573
C    15.13000011   5.73999977  57.74000168
C    24.94999886   7.27999973  56.97000122
H    25.23540688   6.63070011  57.79767990
H    20.61000061   6.53999996  59.36999893
H    19.47999954   5.19999981  54.77000427
H    21.70999908   5.59000015  54.10999680
H    23.98999977   6.38999987  54.62999725
H    22.88999939   7.30000019  58.61999893
H    14.57999992   6.05000019  58.61999893
H    25.65000153   7.11000013  56.12999725
H    24.97999954   8.32999992  57.27000427
S    14.11000061   4.18000031  54.19000244
C    11.39999962   4.13999987  54.91000366
C    12.69000053   4.53000021  55.19000244
C    13.01000023   5.13999987  56.44000244
C    12.00000000   5.36999989  57.36000061
C    10.69000053   4.88999987  57.12999725
C     9.59999943   5.10999966  58.02999878
C     8.34999943   4.59000015  57.84999847
C     8.11999989   3.91999984  56.62000275
C     9.09000015   3.67000008  55.68000031
C    10.39000034   4.19000006  55.90000153
C    14.42999935   5.40000010  56.56999969
C    15.13000011   4.94000006  55.43000031
C    16.52000046   4.81999969  55.43000031
C     6.74000025   3.31999993  56.43000031
H     6.21447992   3.96624780  55.72694016
H    11.18000031   3.63000011  53.96999741
H    12.15999985   6.09000015  58.15999985
H     9.80000019   5.75999975  58.88000107
H     7.69000006   4.76999998  58.69999695
H     8.86999989   3.15000010  54.73999786
H    16.97999954   4.40000010  54.54999924
H     6.25000000   3.25999999  57.41000366
H     6.90999985   2.30999994  56.04000092
S    14.22999954   2.47000003  51.31999969
C    11.64999962   1.65000010  51.97999954
C    13.00000000   1.54999995  52.19999695
C    13.50999928   0.85000002  53.34999847
C    12.60000038   0.27000001  54.20999908
C    11.19999981   0.41000003  54.06000137
C    10.25000000  -0.01000000  55.04000092
C     8.89999962   0.14999999  54.82999802
C     8.39999962   0.75999999  53.64999771
C     9.30999947   1.18000007  52.71999741
C    10.72000027   1.08000004  52.88000107
C    14.92000008   1.10000002  53.56999969
C    15.43000031   1.88999999  52.50000000
C    16.75000000   2.31999993  52.54000092
C     6.90000010   0.94999999  53.50999832
H     6.37005186   0.29830736  52.81533813
H    11.23999977   2.30999994  51.20999908
H    12.90999985  -0.19000000  55.14999771
H    10.57999992  -0.54000002  55.93000031
H     8.23999977  -0.34000003  55.52999878
H     8.94999981   1.62000000  51.79000092
H    17.17000008   2.86999989  51.70000076
H     6.34999990   0.94999999  54.45999908
H     6.69000053   1.99000001  53.20999908
S    18.38000107   0.64000005  55.72999954
C    20.89999962   1.76999998  55.19000244
C    19.56999969   1.61000001  54.86000061
C    18.97999954   2.19000006  53.69999695
C    19.80999947   2.76999998  52.76000214
C    21.21000099   2.82999992  52.97000122
C    22.13000107   3.25999999  51.97000122
C    23.47999954   3.16000009  52.19999695
C    23.95999908   2.96999979  53.53000259
C    23.11000061   2.56000018  54.52999878
C    21.71999931   2.47000003  54.26000214
C    17.56000137   1.87000012  53.59000397
C    17.05999947   1.01999998  54.61000061
C    15.72000027   0.65999997  54.62999725
C    25.43999863   3.19999981  53.76999664
H    25.79072762   3.37894297  54.78639603
H    21.35999870   1.30999994  56.05999756
H    19.37999916   3.09999990  51.81999969
H    21.76000214   3.79999995  51.10000229
H    24.18000031   3.44000006  51.40999603
H    23.44000053   2.23000002  55.51000214
H    15.29000092  -0.08000001  55.30000305
H    25.89999962   4.05000019  53.25000000
H    25.97999954   2.29999995  53.46000290
