96

S    17.65999985   6.32000017  58.79000092
C    20.35000038   6.56000042  58.06999969
C    19.06999969   6.17999983  57.72999573
C    18.70000076   5.52999973  56.51000214
C    19.69000053   5.51999998  55.54000092
C    21.02000046   5.93999958  55.77000046
C    22.09000015   5.65000010  54.88999939
C    23.38000107   5.88999987  55.30000305
C    23.68000031   6.61999989  56.49000168
C    22.67000008   6.84000015  57.39999771
C    21.32999802   6.50000000  57.05999756
C    17.27000046   5.31000042  56.36000061
C    16.56999969   5.77000046  57.50999832
C    15.19000053   5.60999966  57.62000275
C    25.07999802   7.11000013  56.77999878
H    25.33494377   6.84797335  57.80686188
H    20.55000114   6.80999994  59.10999680
H    19.54000092   5.14999962  54.52999878
H    21.87999916   5.26000023  53.88999939
H    24.18999863   5.78000021  54.58000183
H    22.79999924   7.36999989  58.34000015
H    14.65000057   5.95000029  58.50000000
H    25.79999924   6.63000011  56.11000061
H    25.20000076   8.19999981  56.72000122
S    14.06000042   4.09000015  54.12000275
C    11.32999992   3.94000006  54.87999725
C    12.61999989   4.33999968  55.12000275
C    13.01000023   4.99000025  56.33999634
C    12.03999996   5.44000053  57.21000290
C    10.72999954   4.94000006  57.04999924
C     9.76000023   5.10999966  58.08000183
C     8.47000027   4.71000004  57.88999939
C     8.10000038   3.86999989  56.79999924
C     9.03999996   3.65000010  55.81999969
C    10.39000034   4.09999990  55.93000031
C    14.45000076   5.13000011  56.53999710
C    15.14999962   4.65000010  55.40000153
C    16.53000069   4.79999971  55.28999710
C     6.65999985   3.50000000  56.51000214
H     6.20686054   4.20803022  55.81613159
H    11.10999966   3.40999985  53.95999908
H    12.25999928   5.82000017  58.20000076
H     9.94000053   5.80999947  58.89999771
H     7.65999985   5.03000021  58.54000092
H     8.76999950   3.23000002  54.86000061
H    17.12000084   4.53000021  54.41999817
H     6.10000038   3.40999985  57.44999695
H     6.65999985   2.50000000  56.05999756
S    17.79000092   6.34999990  52.72999573
C    20.43000031   6.75000000  51.84999847
C    19.17000008   6.25000000  51.62000275
C    18.78000069   5.59999990  50.40000153
C    19.75000000   5.40000010  49.43000031
C    21.04999924   5.92000008  49.61999893
C    22.07999992   5.86000013  48.62999725
C    23.38000107   6.28000021  48.79000092
C    23.67000198   6.97000027  50.00000000
C    22.73999977   7.07999992  51.00000000
C    21.42000008   6.57999992  50.84000015
C    17.35999870   5.29999971  50.35999680
C    16.65999985   5.75000000  51.51000214
C    15.27999973   5.66999960  51.68000031
C    25.03999901   7.57000017  50.21999741
H    25.48962021   7.14892578  51.11923981
H    20.63999939   7.34000015  52.74000168
H    19.38999939   4.82999992  48.57999802
H    21.70000076   5.29999971  47.77999878
H    24.10000038   6.25999975  47.97999954
H    22.93000031   7.62000036  51.93000031
H    14.78999996   5.92999983  52.61000061
H    25.71000099   7.36000013  49.38000107
H    25.00999832   8.64999962  50.38000107
S    14.11000061   4.53999996  48.04000092
C    11.42000008   4.36999989  48.85000229
C    12.72999954   4.65999985  49.13999939
C    13.10999966   5.09999990  50.45000076
C    12.18999958   5.17000008  51.47999573
C    10.85000038   4.86999989  51.16000366
C     9.77999973   5.07000017  52.09000015
C     8.53999996   4.51000023  51.97000122
C     8.21000004   3.86999989  50.75000000
C     9.10000038   3.91000009  49.69999695
C    10.44999981   4.32999992  49.88999939
C    14.55000019   5.32000017  50.54000092
C    15.22999954   4.96000004  49.34999847
C    16.61000061   4.85000038  49.27000046
C     6.86999989   3.22000003  50.48999786
H     6.22942495   3.81075287  49.83518982
H    11.16000080   4.03999996  47.84999847
H    12.50000000   5.51999998  52.45999908
H    10.01000023   5.73999977  52.91999817
H     7.82000017   4.56999969  52.77999878
H     8.78000069   3.51999998  48.75000000
H    17.14999962   4.65999985  48.34000015
H     6.50000000   3.10999990  51.52000046
H     6.89000034   2.23000002  50.00999832
