96

S    17.80999947   6.06999969  58.81999969
C    20.52000046   6.05999994  58.02000046
C    19.19999886   5.77000046  57.76000214
C    18.78999901   5.26000023  56.47999573
C    19.73999977   5.19999981  55.47999954
C    21.07999992   5.59000015  55.72000122
C    22.09000015   5.73999977  54.72999954
C    23.39999962   6.05999994  54.97000122
C    23.78999901   6.42000008  56.29000092
C    22.86000061   6.30000019  57.29999924
C    21.54000092   5.84999990  57.05999756
C    17.34000015   5.07999992  56.44000244
C    16.64999962   5.52999973  57.60000229
C    15.29000092   5.84999990  57.62000275
C    25.22999954   6.81999969  56.52999878
H    25.68798637   6.24035978  57.33147430
H    20.69000053   6.52999973  58.97999573
H    19.37000084   4.96000004  54.48999786
H    21.77999878   5.56999969  53.69999695
H    24.13999939   6.01999998  54.16999817
H    23.22000122   6.54999971  58.29999924
H    14.81999969   6.34000015  58.47000122
H    25.92000008   6.63000011  55.70000076
H    25.36999893   7.81000042  56.97999954
S    14.01999950   4.42999983  54.15000153
C    11.33999920   4.28000021  54.93000031
C    12.61999989   4.69999981  55.20999908
C    13.04999924   5.25000000  56.45999908
C    12.05000019   5.45000029  57.39999771
C    10.71000004   5.05999994  57.16999817
C     9.70000076   5.26999998  58.15000153
C     8.38999939   4.99000025  57.81000137
C     8.03999996   4.28999996  56.63000107
C     9.02999973   3.94000006  55.73999786
C    10.36000061   4.39000034  55.94999695
C    14.48999977   5.38000011  56.56999969
C    15.17000008   4.90000010  55.41999817
C    16.54999924   4.77999973  55.33000183
C     6.61000013   3.86000013  56.40999603
H     6.24010277   4.35793877  55.51370621
H    11.03000069   3.96000004  53.94000244
H    12.28999996   5.88999987  58.36999893
H    10.06999969   5.75000000  59.05000305
H     7.64999962   5.33999968  58.52000427
H     8.84000015   3.61999989  54.71000290
H    17.00000000   4.48999977  54.38999939
H     6.02999973   4.17000008  57.29000092
H     6.50000000   2.76999998  56.26999664
S    18.22000122   6.67999983  52.43000031
C    20.79999924   7.03999996  51.51000214
C    19.55999947   6.50000000  51.29000092
C    19.26000023   5.73999977  50.10000229
C    20.25000000   5.49000025  49.16999817
C    21.55999947   5.97000027  49.41999817
C    22.57999802   5.75000000  48.46000290
C    23.81000137   6.32999992  48.66000366
C    24.11000061   7.09000015  49.81999969
C    23.12999916   7.36999989  50.75000000
C    21.83000183   6.81999969  50.56000137
C    17.81999969   5.53999996  50.04000092
C    17.13999939   5.95000029  51.22000122
C    15.76000023   6.00000000  51.30000305
C    25.55000114   7.46999979  50.06000137
H    25.98382568   6.86548853  50.85653305
H    20.95999908   7.68000031  52.36999893
H    20.05000114   4.84000015  48.33000183
H    22.32000160   5.23000002  47.54000092
H    24.60000038   6.24000025  47.91999817
H    23.23999786   8.01000023  51.62000275
H    15.26999950   6.17000008  52.25999832
H    26.07000160   7.23999977  49.12000275
H    25.55999947   8.55000019  50.20000076
S    14.51000023   4.73000002  47.77000046
C    11.87999916   4.42999983  48.61999893
C    13.15999985   4.86999989  48.89999771
C    13.53000069   5.50000000  50.13000107
C    12.53000069   5.69999981  51.05999756
C    11.21999931   5.19000006  50.84000015
C    10.32999992   5.25000000  51.95000076
C     9.00000000   5.05000019  51.68000031
C     8.56000042   4.50000000  50.44000244
C     9.48000050   4.26000023  49.45000076
C    10.85000038   4.61999989  49.58000183
C    14.98000050   5.64000034  50.19000244
C    15.67000008   5.23000002  49.02000046
C    17.04000092   5.03999996  49.00000000
C     7.11999989   4.05000019  50.30000305
H     6.67886591   4.61920547  49.48176956
H    11.65999985   4.09999990  47.61000061
H    12.72999954   6.01999998  52.08000183
H    10.73999977   5.79999971  52.80000305
H     8.30000019   5.25000000  52.48000336
H     9.09000015   3.78999996  48.54999924
H    17.60000038   4.84000015  48.09000015
H     6.61000013   4.15999985  51.25999832
H     7.00000000   2.98000002  50.08999634
