96

S    17.94999886   6.25000000  59.16999817
C    20.69999886   6.14000034  58.48999786
C    19.38999939   5.84000015  58.20999908
C    19.02000046   5.27999973  56.93999863
C    20.00999832   5.13000011  55.98999786
C    21.35000038   5.51999998  56.19999695
C    22.39000130   5.13999987  55.28999710
C    23.71999931   5.42999983  55.52999878
C    24.04999924   6.00000000  56.77999878
C    23.08000183   6.32000017  57.70000076
C    21.70000076   6.02999973  57.49000168
C    17.57999992   5.19999981  56.81000137
C    16.86000061   5.86000013  57.83000183
C    15.48999977   6.06999969  57.72999573
C    25.48999977   6.38999987  57.01000214
H    25.87400818   5.79976273  57.84202194
H    21.09000015   6.48000002  59.45000076
H    19.76000023   4.48999977  55.13999939
H    21.97999954   4.55999994  54.47000122
H    24.53000069   5.23000002  54.84000397
H    23.36999893   6.91999960  58.56999969
H    14.96999931   6.39999962  58.62999725
H    26.17000198   6.39999962  56.14999771
H    25.40999985   7.42999983  57.34000397
S    14.53999996   4.42000008  54.26000214
C    11.82000065   4.55000019  54.80999756
C    13.09000015   4.99000025  55.10000229
C    13.35000038   5.51000023  56.40999603
C    12.35000038   5.68000031  57.35000229
C    11.00999928   5.38999987  56.98999786
C     9.92999935   5.55000019  57.90999985
C     8.69999981   5.00999975  57.62000275
C     8.47000027   4.30999994  56.40999603
C     9.43000031   4.36999989  55.41999817
C    10.76000023   4.77999973  55.72000122
C    14.78999996   5.65000010  56.59000015
C    15.57000065   5.07000017  55.54999924
C    16.90000153   4.72000027  55.68000031
C     7.26000023   3.45000005  56.12999725
H     6.60502291   4.08361912  55.53197479
H    11.68000031   3.96000004  53.90999603
H    12.58999920   6.17000008  58.29000092
H    10.19000053   5.88999987  58.90999603
H     8.09000015   4.80999994  58.50000000
H     9.30000019   3.75000000  54.52999878
H    17.43999863   4.41000032  54.78000259
H     6.71999979   3.33999991  57.09000015
H     7.35000038   2.43000007  55.75000000
S    18.19000053   6.34000015  52.95999908
C    20.89999962   6.60000038  52.16999817
C    19.62000084   6.17000008  51.93000031
C    19.31999969   5.56999969  50.65999985
C    20.31999969   5.38000011  49.72999954
C    21.65999985   5.78999996  49.94999695
C    22.72999954   5.58000040  49.03999710
C    24.01000023   6.02999973  49.29000092
C    24.25000000   6.58999968  50.56999969
C    23.22999954   6.91999960  51.44000244
C    21.87999916   6.56000042  51.14999771
C    17.87999916   5.38000011  50.47999954
C    17.15999985   5.82999992  51.60999680
C    15.77999973   6.01000023  51.59000015
C    25.69999886   6.85999966  50.86999893
H    26.04177856   6.38293457  51.78852844
H    21.17000198   6.93000031  53.16999817
H    20.00000000   4.92000008  48.80000305
H    22.56000137   4.97000027  48.15999985
H    24.82999992   5.84000015  48.60000229
H    23.38999939   7.42999983  52.37999725
H    15.31000042   6.34000015  52.50999832
H    26.34000015   6.61000013  50.00999832
H    25.88000107   7.90999985  51.11999893
S    14.63999939   4.59000015  48.11000061
C    11.90999985   4.42999983  48.88000107
C    13.20000076   4.88000011  49.09999847
C    13.59000015   5.49000025  50.33000183
C    12.63000011   5.75999975  51.30000305
C    11.30000019   5.32000017  51.09000397
C    10.31999969   5.44000053  52.11000061
C     9.01000023   5.07000017  51.90999985
C     8.64999962   4.42000008  50.70000076
C     9.59999943   4.15999985  49.73999786
C    10.93999958   4.63000011  49.87999725
C    15.01999950   5.69000006  50.45000076
C    15.76000023   5.12000036  49.38000107
C    17.13999939   5.00000000  49.36000061
C     7.23000002   3.88000011  50.61000061
H     6.71705961   4.45705843  49.84058762
H    11.59000015   4.00000000  47.94000244
H    12.89000034   6.11000013  52.29000092
H    10.65999985   5.78000021  53.09000015
H     8.25000000   5.03000021  52.69000244
H     9.39999962   3.40000010  49.00000000
H    17.69000053   4.53999996  48.54000092
H     6.80000019   4.05000019  51.59999847
H     7.30000019   2.79000020  50.47999954
