96

S    17.90999985   6.96000004  58.54999924
C    20.53999901   7.13000011  57.61000061
C    19.27999878   6.60000038  57.49000168
C    18.88000107   5.86999989  56.31999969
C    19.85999870   5.53999996  55.40000153
C    21.19999886   5.92000008  55.61999893
C    22.29000092   5.44000053  54.82999802
C    23.61999893   5.51999998  55.15999603
C    24.00000000   6.19999981  56.35000229
C    22.98999977   6.76000023  57.09000015
C    21.60000038   6.65999985  56.79000092
C    17.43000031   5.69000006  56.30000305
C    16.76000023   6.21999979  57.42000198
C    15.36999893   6.30999994  57.44999695
C    25.43999863   6.63000011  56.56000137
H    25.89510345   6.27444983  57.48442841
H    20.69999886   7.76000023  58.48999786
H    19.62000084   5.01999950  54.47000122
H    22.00000000   5.01999950  53.87000275
H    24.31999969   5.15999985  54.40999985
H    23.22000122   7.30999994  58.00000000
H    14.86999989   6.61000013  58.36000061
H    26.17000198   6.37000036  55.77999878
H    25.40999985   7.72000027  56.66999817
S    14.27999973   4.59000015  54.00000000
C    11.59999943   4.42999983  54.69999695
C    12.84999943   4.90999985  55.00999832
C    13.20000076   5.55999994  56.23000336
C    12.18000031   5.61999989  57.15999985
C    10.88000107   5.18000031  56.81999969
C     9.84000015   5.36999989  57.77999878
C     8.53999996   5.01999950  57.54000092
C     8.19000053   4.48000002  56.26999664
C     9.13999939   4.21999979  55.31999969
C    10.48999977   4.59999990  55.56000137
C    14.63000107   5.80999947  56.37000275
C    15.31999969   5.38999987  55.20000076
C    16.69000053   5.17000008  55.22999573
C     6.77999973   3.95000005  56.12999725
H     6.18192577   4.59079361  55.48208237
H    11.54999924   3.74000025  53.85000229
H    12.48000050   5.84000015  58.18999863
H    10.11999989   5.80999947  58.74000168
H     7.82999992   4.99000025  58.36999893
H     8.92000008   3.86999989  54.31999969
H    17.19000053   4.78999996  54.34999847
H     6.24000025   3.84999990  57.08000183
H     6.84999990   2.94000006  55.68999863
S    18.35000038   6.74000025  52.69000244
C    20.96999931   7.13999987  51.77999878
C    19.70000076   6.65000010  51.55000305
C    19.25000000   6.15999985  50.27999878
C    20.13000107   6.17000008  49.20999908
C    21.44000053   6.67999983  49.38999939
C    22.39999962   6.65999985  48.34000015
C    23.72999954   6.94999981  48.59000397
C    24.04000092   7.63999987  49.79000092
C    23.12999916   7.79999971  50.80999756
C    21.84000015   7.22000027  50.66999817
C    17.79999924   6.15999985  50.20000076
C    17.14999962   6.54999971  51.39999771
C    15.77000046   6.65000010  51.46999741
C    25.46999931   8.07999992  50.01999664
H    25.97478104   7.42591763  50.73096085
H    21.30000114   7.53000021  52.74000168
H    20.00999832   5.56999969  48.31999969
H    22.13999939   6.23000050  47.37999725
H    24.48999786   6.65999985  47.88000107
H    23.50000000   8.09000015  51.79000092
H    15.31000042   6.81999969  52.43999863
H    25.98999977   7.96000004  49.06000137
H    25.28000069   9.10000038  50.38000107
S    14.46000004   5.46000004  47.90000153
C    11.82000065   5.07000017  48.75999832
C    13.10999966   5.49000025  49.03999710
C    13.53999996   5.96000004  50.31999969
C    12.58999920   6.11999989  51.31999969
C    11.25000000   5.75999975  51.04000092
C    10.21000004   5.89999962  52.00000000
C     8.92000008   5.47999954  51.77000046
C     8.51000023   5.03000021  50.48999786
C     9.48000050   4.88000011  49.52999878
C    10.85000038   5.19000006  49.78000259
C    14.96999931   6.19999981  50.40999985
C    15.60999966   5.80999947  49.20999908
C    17.00000000   5.82999992  49.09999847
C     7.11999989   4.46000004  50.30000305
H     6.53749514   4.87201548  49.47596741
H    11.56000042   4.65000010  47.80000305
H    12.97000027   6.34000015  52.30999756
H    10.51000023   6.30000019  52.95999908
H     8.10000038   5.51999998  52.49000168
H     9.32999992   4.51000023  48.52000427
H    17.43999863   5.65999985  48.11999893
H     6.61000013   4.61000013  51.25999832
H     7.26999998   3.38000011  50.21999741
