96

S    17.02999878   6.39999962  58.68999863
C    19.76000023   6.65000010  57.95000076
C    18.47999954   6.23000050  57.68000031
C    18.20000076   5.50000000  56.47999573
C    19.25000000   5.18000031  55.63000107
C    20.52000046   5.77000046  55.77999878
C    21.59000015   5.53999996  54.86000061
C    22.85000038   6.00000000  55.15999603
C    23.11000061   6.78999996  56.31000137
C    22.10000038   7.00999975  57.21000290
C    20.81000137   6.44999981  57.02000046
C    16.77000046   5.29999971  56.29000092
C    16.00000000   5.77000046  57.37999725
C    14.63999939   5.55000019  57.47000122
C    24.48999786   7.39000034  56.50000000
H    24.95148659   6.87881470  57.34487915
H    19.77000046   7.30999994  58.81000137
H    18.97999954   4.41000032  54.89999771
H    21.42999840   4.96000004  53.95999908
H    23.71000099   5.96000004  54.50000000
H    22.26000023   7.78999996  57.95999908
H    14.19999981   5.77000046  58.43999863
H    25.06000137   7.25000000  55.56999969
H    24.37999916   8.47000027  56.59000015
S    13.71999931   3.82999992  54.03999710
C    11.00000000   3.60000014  54.75999832
C    12.27000046   4.07000017  55.02999878
C    12.53999901   4.67999983  56.29000092
C    11.47999954   4.92999983  57.15999985
C    10.14999962   4.55000019  56.84999847
C     9.04999924   4.74000025  57.74000168
C     7.82999992   4.13999987  57.52999878
C     7.57999992   3.38999987  56.35000229
C     8.64999962   3.16000009  55.52000046
C     9.94000053   3.73000002  55.68999863
C    13.96000004   4.97000027  56.38999939
C    14.75000000   4.59000015  55.27000046
C    16.13999939   4.57999992  55.27000046
C     6.25999975   2.71000004  56.07999802
H     5.57741833   3.30014849  55.46851730
H    10.77999973   3.08999991  53.82999802
H    11.63000011   5.44000053  58.11000061
H     9.27999973   5.36999989  58.60000229
H     7.05999947   4.26999998  58.29000092
H     8.42000008   2.51999998  54.66999817
H    16.77999878   4.09999990  54.52999878
H     5.77000046   2.50999975  57.04999924
H     6.43000031   1.74000001  55.59999847
S    14.09000015   1.75000000  51.00999832
C    11.56000042   1.04999995  51.88999939
C    12.92000008   0.94999999  52.08000183
C    13.48999977   0.25999999  53.20000076
C    12.61999989  -0.24000001  54.15000153
C    11.21999931  -0.20999999  53.95000076
C    10.27999973  -0.76999998  54.85000229
C     8.92000008  -0.73000002  54.62999725
C     8.38000011  -0.11000000  53.47000122
C     9.26000023   0.35999998  52.50999832
C    10.65000057   0.41999999  52.77999878
C    14.89999962   0.61000001  53.33000183
C    15.31999969   1.43999994  52.25999832
C    16.60000038   1.97000003  52.22999954
C     6.90999985   0.19999999  53.31999969
H     6.51838636  -0.20585367  52.38724899
H    11.14999962   1.58999991  51.04000092
H    13.07999992  -0.64999998  55.05000305
H    10.62000084  -1.15999997  55.79999924
H     8.25000000  -1.08999991  55.40999985
H     8.92000008   0.88000000  51.62000275
H    16.94000053   2.38999987  51.27999878
H     6.32000017  -0.20999999  54.15000153
H     6.71999979   1.26999998  53.36999893
S    18.35000038   0.57999998  55.52000046
C    20.88999939   1.46000004  54.59999847
C    19.52000046   1.38000000  54.45000076
C    18.93000031   2.00000000  53.29999924
C    19.71999931   2.50000000  52.27000427
C    21.11999893   2.57999992  52.41000366
C    22.04000092   3.05000019  51.43000031
C    23.39999962   3.15000010  51.63999939
C    23.95999908   2.61999989  52.83000183
C    23.11000061   2.21000004  53.82999802
C    21.70999908   2.05999994  53.61999893
C    17.48999977   1.77999997  53.29000092
C    17.05000114   0.97000003  54.36999893
C    15.77000046   0.43000001  54.40999985
C    25.38999939   2.87999988  53.26000214
H    25.52599907   3.58145952  54.08314133
H    21.35999870   1.07000005  55.50000000
H    19.18000031   2.92000008  51.42000198
H    21.77000046   3.49000001  50.47999954
H    24.01000023   3.75000000  50.97000122
H    23.39999962   2.07999992  54.86999893
H    15.55999947  -0.19000000  55.27000046
H    25.78000069   3.33999991  52.34000397
H    25.95999908   1.94999993  53.34000015
