96

S    17.94999886   6.37000036  58.77999878
C    20.58000183   6.80000019  57.97000122
C    19.34999847   6.25000000  57.70000076
C    18.98999977   5.61999989  56.45999908
C    19.97999954   5.51999998  55.50000000
C    21.28999901   6.00000000  55.76000214
C    22.37999916   5.84999990  54.86000061
C    23.62999916   6.38999987  55.00999832
C    23.90000153   6.97000027  56.27999878
C    22.95999908   7.02000046  57.28000259
C    21.61999893   6.61999989  57.02000046
C    17.54999924   5.45000029  56.36000061
C    16.81999969   5.82000017  57.51999664
C    15.44000053   5.92999983  57.63000107
C    25.28000069   7.42999983  56.65999985
H    25.72808838   6.78276205  57.41392517
H    20.85000038   7.36000013  58.86000061
H    19.76000023   4.90999985  54.62999725
H    22.17000008   5.13000011  54.06999969
H    24.38999939   6.14000034  54.27999878
H    23.12999916   7.51999950  58.22999954
H    14.98000050   6.21999979  58.56999969
H    25.88999939   7.46000004  55.75000000
H    25.17000008   8.46000004  57.02000046
S    14.32000065   4.44999981  54.08000183
C    11.69000053   4.15000010  54.93000031
C    12.96000004   4.59000015  55.20999908
C    13.28999996   5.22000027  56.45000076
C    12.28000069   5.38999987  57.37999725
C    10.95000076   4.98000002  57.11999893
C     9.90999985   5.13000011  58.09000015
C     8.60000038   4.92000008  57.75000000
C     8.32999992   4.28999996  56.50000000
C     9.30000019   3.97000027  55.56999969
C    10.62999916   4.40000010  55.84999847
C    14.73000050   5.47999954  56.51000214
C    15.39999962   5.09000015  55.33000183
C    16.79000092   5.13000011  55.22999573
C     6.94999981   3.68000007  56.38000107
H     6.37933350   4.07233334  55.53826904
H    11.51999950   3.60000014  54.01000214
H    12.51000023   5.82000017  58.34000015
H    10.10000038   5.25000000  59.15999985
H     7.86000013   4.84000015  58.54000092
H     9.13999939   3.40999985  54.65000153
H    17.28000069   4.79999971  54.31999969
H     6.39999962   3.84000015  57.31999969
H     6.96000004   2.59000015  56.25000000
S    18.42000008   6.67000008  52.43000031
C    21.09999847   6.67000008  51.47999573
C    19.76000023   6.43000031  51.27999878
C    19.29999924   5.98000002  50.00000000
C    20.19000053   5.91000032  48.94000244
C    21.54999924   6.28000021  49.09000015
C    22.52000046   6.39999962  48.04999924
C    23.69999886   7.05999947  48.29999924
C    24.10000038   7.57000017  49.55999756
C    23.21000099   7.42999983  50.61000061
C    21.98999786   6.72999954  50.38000107
C    17.86000061   5.75999975  49.99000168
C    17.23999977   6.19000006  51.18999863
C    15.85999966   6.32000017  51.24000168
C    25.35000038   8.42000008  49.65999985
H    26.22522736   7.85074615  49.97309113
H    21.44000053   7.09999990  52.41000366
H    19.71999931   5.61999989  48.00000000
H    22.20999908   6.11999989  47.04999924
H    24.30999947   7.23999977  47.43000031
H    23.43000031   7.88000011  51.56999969
H    15.34999943   6.85999966  52.04000092
H    25.45000076   8.84000015  48.64999771
H    25.00999832   9.26000023  50.27999878
S    14.52000046   4.65000010  47.84999847
C    11.90000057   4.59999990  48.80000305
C    13.21000004   4.98000002  48.99000168
C    13.63999939   5.61999989  50.20000076
C    12.71999931   5.88000011  51.19999695
C    11.39000034   5.42000008  51.04000092
C    10.42000008   5.40000010  52.09000015
C     9.10000038   5.09000015  51.86000061
C     8.64999962   4.63000011  50.59999847
C     9.56999969   4.51999998  49.58000183
C    10.92000008   4.92000008  49.78000259
C    15.08999920   5.75000000  50.21999741
C    15.69000053   5.31000042  49.01000214
C    17.07999992   5.33999968  48.90999603
C     7.27999973   4.02999973  50.38000107
H     6.73061657   4.46522570  49.54522324
H    11.69000053   4.03999996  47.88999939
H    13.01000023   6.32000017  52.14000320
H    10.76000023   5.86999989  53.01000214
H     8.47999954   5.03999996  52.75000000
H     9.11999989   4.03999996  48.70999908
H    17.61000061   5.09999990  48.00000000
H     6.61999989   4.13999987  51.25000000
H     7.40000010   2.94000006  50.27000046
