96

S    17.87999916   6.60000038  58.73000336
C    20.46999931   6.90000010  57.83000183
C    19.22999954   6.34999990  57.60000229
C    18.79999924   5.84999990  56.32999802
C    19.68000031   5.98999977  55.27000046
C    21.02999878   6.38999987  55.47999954
C    21.98999786   6.34999990  54.43999863
C    23.28000069   6.76999998  54.68000031
C    23.71000099   6.98000002  56.02000427
C    22.81999969   7.00999975  57.05999756
C    21.42999840   6.80000019  56.79999924
C    17.35999870   5.63000011  56.29000092
C    16.72999954   6.03999996  57.49000168
C    15.34999943   6.03999996  57.64999771
C    25.17000008   7.27999973  56.23000336
H    25.62366867   6.52152443  56.86796951
H    20.69000053   7.30999994  58.81000137
H    19.32999992   5.75999975  54.27000046
H    21.64999962   6.01000023  53.47000122
H    23.98999977   6.81999969  53.85000229
H    23.19000053   7.05999947  58.08000183
H    14.88000011   6.28999996  58.59000397
H    25.72000122   7.13000011  55.28999710
H    25.38000107   8.27999973  56.63000107
S    14.13000011   4.48999977  54.16999817
C    11.47999954   4.26000023  55.06999969
C    12.76999950   4.69000006  55.28999710
C    13.15000057   5.33999968  56.51000214
C    12.17000008   5.68000031  57.42000198
C    10.82999992   5.28999996  57.25999832
C     9.85999966   5.40000010  58.29999924
C     8.55000019   5.00999975  58.16999817
C     8.25000000   4.26999998  56.98999786
C     9.17000008   4.07000017  55.97999954
C    10.50000000   4.55999994  56.05999756
C    14.59000015   5.53999996  56.58000183
C    15.24000072   5.19000006  55.37000275
C    16.61000061   5.26000023  55.17000198
C     6.91999960   3.58000016  56.83000183
H     6.27227974   4.01418591  56.06839752
H    11.28000069   3.71000004  54.15999985
H    12.44999981   6.21999979  58.33000183
H    10.25000000   5.73999977  59.26000214
H     7.94000053   5.00999975  59.06000137
H     8.88000011   3.40000010  55.18000031
H    17.06999969   4.99000025  54.22000122
H     6.48000002   3.56999993  57.84000015
H     7.00000000   2.49000001  56.70999908
S    13.96000004   2.36000013  50.91999817
C    11.38000011   1.75999999  51.75000000
C    12.72999954   1.71000004  52.02000046
C    13.40000057   1.18000007  53.16999817
C    12.58999920   0.73000002  54.19000244
C    11.18999958   0.69999999  53.97999573
C    10.34000015   0.25999999  55.02999878
C     8.97000027   0.19999999  54.89999771
C     8.34999943   0.74000001  53.74000168
C     9.15999985   1.26999998  52.76000214
C    10.57999992   1.18000007  52.77000046
C    14.84000015   1.38000000  53.22999954
C    15.27999973   2.05999994  52.06999969
C    16.53000069   2.66000009  52.02000046
C     6.88000011   1.07000005  53.66000366
H     6.43274117   0.36006528  52.96426392
H    10.85999966   2.33999991  50.98999786
H    12.82999992   0.54000002  55.24000168
H    10.85999966   0.03000000  55.96000290
H     8.42000008  -0.23000000  55.73999786
H     8.73000050   1.80999994  51.91999817
H    16.76000023   3.32999992  51.19999695
H     6.34000015   0.87000000  54.59000015
H     6.70000029   2.09999990  53.34000015
S    18.23999977   1.24000001  55.34999847
C    20.84000015   1.95999992  54.58000183
C    19.48999977   2.00999999  54.34999847
C    18.89999962   2.59000015  53.18000031
C    19.78000069   3.01999998  52.18999863
C    21.15999985   3.08999991  52.45999908
C    22.04000092   3.52999973  51.43000031
C    23.40999985   3.50000000  51.59000015
C    23.95999908   3.22000003  52.85999680
C    23.15000153   2.68000007  53.82999802
C    21.73999977   2.56999993  53.67000198
C    17.46999931   2.38999987  53.02999878
C    17.01000023   1.65000010  54.15000153
C    15.75000000   1.08000004  54.26000214
C    25.38999939   3.60000014  53.15000153
H    25.88846970   2.96623182  53.88346100
H    21.22999954   1.50000000  55.48999786
H    19.37999916   3.35999990  51.24000168
H    21.54999924   3.96000004  50.56000137
H    24.06999969   4.03999996  50.90999985
H    23.61999893   2.33999991  54.75000000
H    15.34000015   0.65999997  55.17000198
H    25.48999977   4.63000011  53.50999832
H    25.96999931   3.58999991  52.21000290
