96

S    17.31999969   6.07999992  58.83999634
C    20.03000069   6.25000000  58.29000092
C    18.78999901   5.79999971  57.88999939
C    18.45000076   5.27999973  56.59999847
C    19.51000023   5.14999962  55.70999908
C    20.81000137   5.59999990  56.04999924
C    21.80000114   5.69999981  55.02999878
C    23.05000114   6.17000008  55.34000015
C    23.36000061   6.67999983  56.63000107
C    22.36999893   6.71000004  57.58999634
C    21.07000160   6.19999981  57.32999802
C    17.02000046   5.07000017  56.38999939
C    16.28999901   5.65999985  57.45999908
C    14.89999962   5.61999989  57.51999664
C    24.71999931   7.26000023  56.93999863
H    25.26780128   6.55568314  57.56605911
H    20.23999977   6.71999979  59.25000000
H    19.31999969   4.88999987  54.68000031
H    21.51000023   5.38999987  54.02000046
H    23.77000046   6.40999985  54.55999756
H    22.56000137   7.09999990  58.59000397
H    14.27999973   6.01999998  58.30999756
H    25.34000015   7.40999985  56.04999924
H    24.71999931   8.19000053  57.50999832
S    13.82999992   3.89999986  54.09999847
C    11.18000031   3.72000003  54.80999756
C    12.43999958   4.13999987  55.17000198
C    12.75000000   4.78999996  56.40999603
C    11.69000053   5.01999950  57.27000427
C    10.42000008   4.51999998  56.91999817
C     9.36999989   4.79999971  57.84000015
C     8.10000038   4.46000004  57.44999695
C     7.76000023   3.79999995  56.24000168
C     8.75000000   3.45999980  55.34999847
C    10.07999992   3.84000015  55.70000076
C    14.17000008   5.07999992  56.45000076
C    14.88999939   4.65999985  55.30000305
C    16.28000069   4.65000010  55.27999878
C     6.32000017   3.42000008  55.97999954
H     5.73786449   4.15121889  55.41916275
H    11.05000019   3.35999990  53.79000092
H    11.94000053   5.55000019  58.18999863
H     9.59999943   5.28999996  58.79000092
H     7.36000013   4.59999990  58.23999786
H     8.48999977   2.96999979  54.40999985
H    16.76000023   4.44000006  54.33000183
H     5.92999983   3.19999981  56.97999954
H     6.30999994   2.45000005  55.45999908
S    14.60000038   1.84000003  51.00000000
C    11.90999985   1.34000003  51.75000000
C    13.26000023   1.14999998  51.95000076
C    13.81000042   0.71000004  53.18999863
C    12.94000053   0.24000001  54.15999985
C    11.54000092   0.25999999  53.94000244
C    10.60999966  -0.38000000  54.79999924
C     9.25000000  -0.39999998  54.56999969
C     8.71999931   0.46000001  53.56999969
C     9.59999943   0.99000001  52.64999771
C    11.00999928   0.87000000  52.74000168
C    15.26000023   0.83999997  53.34000015
C    15.81999969   1.57000005  52.25999832
C    17.13000107   2.03999996  52.25999832
C     7.23999977   0.73000002  53.37999725
H     6.85140991   0.23543039  52.48977280
H    11.56000042   1.92000008  50.90999985
H    13.35000038  -0.31000000  55.00000000
H    11.00999928  -0.69000000  55.76000214
H     8.52000046  -0.88000000  55.20999908
H     9.19999981   1.39999998  51.72999954
H    17.56999969   2.42000008  51.33999634
H     6.65000010   0.37000000  54.22999954
H     7.14999962   1.81999993  53.33000183
S    18.75000000   0.62000000  55.54000092
C    21.31000137   1.53999996  54.68999863
C    19.95000076   1.43999994  54.51000214
C    19.36000061   2.06999993  53.36999893
C    20.10999870   2.89000010  52.55000305
C    21.52000046   2.94000006  52.70000076
C    22.36999893   3.67000008  51.81999969
C    23.65999985   3.91999984  52.22000122
C    24.34000015   3.21000004  53.22999954
C    23.54999924   2.34999990  53.95999908
C    22.13000107   2.31999993  53.83999634
C    17.93000031   1.76999998  53.36999893
C    17.40999985   1.00999999  54.45000076
C    16.06999969   0.64000005  54.45999908
C    25.72999954   3.61000013  53.67000198
H    26.12914848   3.03265810  54.50394058
H    21.77999878   0.81000000  55.34000015
H    19.63000107   3.53999996  51.81999969
H    22.01999855   4.15000010  50.90000153
H    24.20000076   4.72000027  51.72000122
H    23.97000122   1.64000010  54.66999817
H    15.67000008   0.14999999  55.34000015
H    25.68000031   4.69999981  53.74000168
H    26.28999901   3.45999980  52.72999573
