96

S    17.93000031   6.40999985  58.50999832
C    20.56999969   6.86999989  57.58999634
C    19.31999969   6.32000017  57.41000366
C    18.97999954   5.80999947  56.11999893
C    19.92000008   5.61999989  55.12000275
C    21.19999886   6.17999983  55.30000305
C    22.20000076   6.05000019  54.29000092
C    23.52999878   6.21999979  54.58000183
C    23.87000084   6.76000023  55.84999847
C    22.92000008   7.07000017  56.79999924
C    21.55999947   6.71999979  56.59000015
C    17.57999992   5.45000029  56.00999832
C    16.87999916   5.82999992  57.18999863
C    15.50000000   5.79999971  57.25999832
C    25.29999924   7.07999992  56.19999695
H    25.62030602   6.57462740  57.11109543
H    20.93000031   7.27999973  58.53000259
H    19.78999901   5.00000000  54.22999954
H    21.94000053   5.53999996  53.36999893
H    24.34000015   6.01999998  53.88000107
H    23.12000084   7.60999966  57.72999573
H    15.01999950   6.09000015  58.20000076
H    25.98999977   6.75000000  55.40999985
H    25.22999954   8.17000008  56.36000061
S    14.35999966   4.26000023  53.79000092
C    11.61999893   4.26999998  54.59999847
C    12.92000008   4.69999981  54.72999954
C    13.32999992   5.25000000  55.98999786
C    12.41000080   5.40999985  57.01000214
C    11.05000019   5.07000017  56.84999847
C    10.00000000   5.35000038  57.77000046
C     8.69000053   5.00999975  57.52999878
C     8.36999989   4.17000008  56.44000244
C     9.32999992   3.93000007  55.48999786
C    10.67000008   4.40000010  55.63999939
C    14.77000046   5.32999992  56.17000198
C    15.47999954   4.86000013  55.02999878
C    16.86000061   4.92999983  54.93000031
C     6.96000004   3.73000002  56.07999802
H     6.31610823   4.54559612  55.75090027
H    11.25000000   3.88999987  53.64999771
H    12.81000042   5.75999975  57.97000122
H    10.26000023   5.69999981  58.76999664
H     7.88000011   5.29999971  58.20000076
H     9.06000042   3.51000023  54.52000046
H    17.38999939   4.90000010  53.97999573
H     6.43000031   3.38999987  56.97999954
H     7.07999992   2.96999979  55.30000305
S    14.47000027   2.19000006  50.68000031
C    11.78999996   1.85000002  51.52000046
C    13.14000034   1.63000000  51.72000122
C    13.67000008   1.05999994  52.91999817
C    12.75000000   0.59000003  53.85000229
C    11.36000061   0.78000003  53.68999863
C    10.39000034   0.20999999  54.56999969
C     9.03999996   0.39999998  54.43999863
C     8.52000046   1.11000001  53.31999969
C     9.46000004   1.58999991  52.43000031
C    10.86999989   1.43999994  52.50999832
C    15.10000038   1.25999999  53.09000015
C    15.67999935   1.84000003  51.93000031
C    16.97999954   2.32999992  51.93999863
C     7.05999947   1.00000000  52.97000122
H     6.92422771   0.24968153  52.19109726
H    11.51000023   2.23000002  50.54999924
H    13.12000084   0.00000000  54.68000031
H    10.60999966  -0.48000002  55.38999939
H     8.38999939  -0.17999999  55.07999802
H     9.03999996   2.03999996  51.52999878
H    17.51000023   2.89999986  51.18000031
H     6.46000004   0.86000001  53.88000107
H     6.71999979   2.00999999  52.69000244
S    18.40999985   1.08000004  55.44000244
C    21.04999924   1.82999992  54.71000290
C    19.69000053   1.80000007  54.45000076
C    19.15999985   2.33999991  53.22999954
C    20.06999969   2.79000020  52.29999924
C    21.47000122   2.82999992  52.47000122
C    22.37999916   3.40999985  51.52999878
C    23.72999954   3.30999994  51.73999786
C    24.23000145   2.87999988  53.00000000
C    23.32999992   2.42000008  53.93000031
C    21.90999985   2.48000002  53.80000305
C    17.71999931   2.15000010  53.09999847
C    17.20000076   1.36999989  54.16999817
C    15.88000107   0.96000004  54.22000122
C    25.72000122   2.61000013  53.06000137
H    26.13252640   3.02963781  53.97751236
H    21.42999840   1.22000003  55.52000046
H    19.75000000   3.00000000  51.27999878
H    21.90999985   3.70000005  50.59999847
H    24.37000084   3.56999993  50.90000153
H    23.69999886   1.75000000  54.69999695
H    15.51000023   0.35999998  55.05000305
H    26.22999954   2.99000001  52.16999817
H    25.82999992   1.51999998  53.11000061
