96

S    17.79999924   6.57999992  58.70999908
C    20.51000214   6.67000008  58.06000137
C    19.26000023   6.12999964  57.81999969
C    18.89999962   5.36999989  56.65999985
C    19.85000038   5.13000011  55.68999863
C    21.11999893   5.73999977  55.84000015
C    22.13000107   5.64000034  54.85000229
C    23.38000107   6.21000004  54.99000168
C    23.68000031   7.03999996  56.10000229
C    22.67999840   7.23000002  57.02999878
C    21.45000076   6.51000023  57.01000214
C    17.45000076   5.33999968  56.50000000
C    16.65999985   6.01000023  57.48000336
C    15.27999973   6.15000010  57.39999771
C    25.07999802   7.55999994  56.35000229
H    25.67039871   6.82022190  56.89060974
H    20.52000046   7.37999964  58.87000275
H    19.76000023   4.46999979  54.82999802
H    21.77999878   4.90000010  54.13999939
H    24.14999962   5.92999983  54.27999878
H    22.90999985   7.79999971  57.93000031
H    14.77000046   6.51000023  58.27999878
H    25.62999916   7.76999998  55.41999817
H    25.00000000   8.40999985  57.02999878
S    14.39000034   4.09000015  54.09999847
C    11.68000031   3.91000009  54.82999802
C    12.94000053   4.40000010  55.07999802
C    13.22999954   5.23000002  56.20999908
C    12.20999908   5.55000019  57.09999847
C    10.93000031   4.98000002  56.91999817
C     9.86999989   5.13999987  57.85999680
C     8.63000011   4.57999992  57.69000244
C     8.39999962   3.70000005  56.59999847
C     9.35000038   3.63000011  55.59999847
C    10.64000034   4.19000006  55.75000000
C    14.65999985   5.50000000  56.31999969
C    15.42000008   4.90000010  55.28999710
C    16.79999924   4.79999971  55.38000107
C     7.00000000   3.14000010  56.47999573
H     6.43165159   3.66572213  55.71273041
H    11.42000008   3.12999988  54.10999680
H    12.46999931   6.11999989  57.97999954
H     9.98999977   5.80999947  58.70999908
H     7.75000000   4.84000015  58.27999878
H     9.07999992   3.12000012  54.68000031
H    17.38000107   4.32999992  54.59000015
H     6.47000027   3.30000019  57.42000198
H     7.07000017   2.05999994  56.31999969
S    18.19000053   6.50000000  52.78999710
C    20.79999924   6.77999973  51.97999954
C    19.55999947   6.28000021  51.69000244
C    19.10000038   5.97000027  50.37000275
C    20.05000114   5.96000004  49.36000061
C    21.37000084   6.37000036  49.65999985
C    22.30999947   6.46000004  48.60000229
C    23.61000061   6.88000011  48.80000305
C    23.97000122   7.39000034  50.06999969
C    23.09999847   7.34000015  51.12999725
C    21.77000046   6.85999966  50.94999695
C    17.67000008   5.71000004  50.30000305
C    17.02999878   6.10000038  51.50000000
C    15.65000057   6.05000019  51.60999680
C    25.43999863   7.62000036  50.31000137
H    25.91608238   7.27182102  51.22663498
H    20.82999992   7.42000008  52.85999680
H    19.82999992   5.75000000  48.30999756
H    21.97999954   6.14000034  47.62000275
H    24.37999916   6.61999989  48.08000183
H    23.39999962   7.57999992  52.15000153
H    15.14000034   6.43000031  52.50000000
H    26.02999878   7.27999973  49.45000076
H    25.72000122   8.67999935  50.35999680
S    14.34000015   5.00000000  48.04000092
C    11.73999977   4.53999996  48.97999573
C    12.96000004   5.13999987  49.15999985
C    13.42000008   5.55999994  50.45000076
C    12.42000008   5.65999985  51.39999771
C    11.05999947   5.29999971  51.26999664
C    10.11000061   5.23000002  52.34000397
C     8.82000065   4.84000015  52.08000183
C     8.59000015   4.09999990  50.89000320
C     9.52000046   4.00999975  49.86999893
C    10.78999996   4.63000011  50.02999878
C    14.86999989   5.66999960  50.52000046
C    15.52999973   5.33999968  49.31000137
C    16.92000008   5.36000013  49.16999817
C     7.18999958   3.58000016  50.65999985
H     6.62883997   4.22639894  49.98519135
H    11.46999931   4.09000015  48.02999878
H    12.79000092   5.89999962  52.39999771
H    10.57999992   5.42999983  53.29999924
H     8.10999966   4.92999983  52.88999939
H     9.44000053   3.52999973  48.89999771
H    17.43999863   5.19999981  48.22999954
H     6.80000019   3.58999991  51.68000031
H     7.26999998   2.52999997  50.35999680
