96

S    18.13999939   6.65000010  58.73000336
C    20.72000122   6.98000002  57.75000000
C    19.45000076   6.50000000  57.54000092
C    19.12999916   5.80999947  56.32999802
C    20.02000046   5.69999981  55.28999710
C    21.32999802   6.21999979  55.50000000
C    22.39000130   5.92000008  54.59000015
C    23.69999886   6.17999983  54.89999771
C    24.03000069   6.86999989  56.09000397
C    23.05000114   7.18999958  57.01000214
C    21.70000076   6.85999966  56.72999954
C    17.68000031   5.59999990  56.31999969
C    17.02000046   6.11999989  57.45999908
C    15.65000057   6.38000011  57.43000031
C    25.48000145   7.09000015  56.46999741
H    25.77222824   6.66947603  57.43221664
H    20.98999977   7.34000015  58.74000168
H    19.81999969   5.15999985  54.36999893
H    22.11999893   5.36000013  53.69999695
H    24.46000099   5.96000004  54.15000153
H    23.18000031   7.50000000  58.04000092
H    15.21999931   6.83000040  58.31999969
H    26.11000061   6.63000011  55.70000076
H    25.59999847   8.18000031  56.56000137
S    14.48999977   4.81999969  53.94000244
C    11.84000015   4.63000011  54.71000290
C    13.12000084   5.03999996  55.04000092
C    13.43999958   5.75000000  56.23000336
C    12.43999958   5.88999987  57.18000031
C    11.10999966   5.55999994  56.84000015
C    10.11000061   5.63000011  57.85999680
C     8.80999947   5.25000000  57.63000107
C     8.47000027   4.61999989  56.39999771
C     9.40999985   4.53999996  55.40000153
C    10.77999973   4.90000010  55.61000061
C    14.88000011   5.98000002  56.33999634
C    15.55999947   5.46999979  55.20000076
C    16.94000053   5.36000013  55.15999603
C     7.11999989   3.94000006  56.25999832
H     6.60814953   4.45895910  55.44957352
H    11.69999981   3.96000004  53.88000107
H    12.74000072   6.14000034  58.18999863
H    10.46000004   5.98999977  58.81999969
H     8.10999966   5.38000011  58.44999695
H     9.23999977   3.88000011  54.55999756
H    17.39999962   5.05000019  54.22000122
H     6.51999998   4.03999996  57.16999817
H     7.27999973   2.89000010  56.00000000
S    18.52000046   7.03000021  52.58999634
C    21.24000168   7.34000015  51.76000214
C    19.95000076   6.94000006  51.52999878
C    19.60000038   6.28999996  50.30000305
C    20.62999916   6.11999989  49.38999939
C    21.97000122   6.54999971  49.55999756
C    23.01000214   6.15999985  48.67000198
C    24.30999947   6.50000000  48.96999741
C    24.59000015   7.27999973  50.13000107
C    23.61999893   7.62000036  51.03000259
C    22.27999878   7.17999983  50.81999969
C    18.17000008   6.05999994  50.18000031
C    17.42000008   6.47000027  51.31000137
C    16.03999901   6.61999989  51.31999969
C    26.05999947   7.46000004  50.44000244
H    26.48752403   6.74745941  51.14541626
H    21.54000092   7.81000042  52.70000076
H    20.30999947   5.72000027  48.43999863
H    22.76000023   5.75999975  47.69000244
H    25.09000015   6.25000000  48.26000214
H    23.77000046   8.10000038  52.00000000
H    15.50000000   7.18999958  52.06999969
H    26.65999985   7.46999979  49.51000214
H    26.01000023   8.43999958  50.93999863
S    15.07999992   4.85000038  47.90000153
C    12.38000011   4.74000025  48.61000061
C    13.63999939   5.22000027  48.88000107
C    13.86000061   5.98000002  50.06999969
C    12.81000042   6.21000004  50.93999863
C    11.50000000   5.77000046  50.65999985
C    10.51000023   5.82999992  51.68000031
C     9.30999947   5.18000031  51.45999908
C     9.11000061   4.48000002  50.24000168
C    10.05000019   4.28999996  49.25000000
C    11.28000069   4.98000002  49.47000122
C    15.29999924   6.11000013  50.25000000
C    16.05999947   5.69000006  49.12000275
C    17.45000076   5.63000011  49.06000137
C     7.71000004   3.96000004  49.99000168
H     7.07132912   4.64834499  49.43648529
H    12.13999939   4.17000008  47.71999741
H    13.07999992   6.72999954  51.86000061
H    10.67999935   6.24000025  52.65999603
H     8.67000008   5.05999994  52.31999969
H     9.96999931   3.55999994  48.44999695
H    17.94999886   5.42999983  48.11999893
H     7.26000023   3.76999998  50.97000122
H     7.86000013   3.05000019  49.40999985
