96

S    17.30999947   6.53999996  58.85000229
C    19.96000099   6.67000008  58.08000183
C    18.70000076   6.19999981  57.81000137
C    18.32999992   5.60999966  56.55000305
C    19.32999992   5.46999979  55.59999847
C    20.65999985   5.88000011  55.84999847
C    21.73000145   5.64000034  54.93999863
C    23.02000046   5.92000008  55.30000305
C    23.31000137   6.61000013  56.51000214
C    22.30999947   6.89000034  57.41000366
C    20.96999931   6.54999971  57.09000015
C    16.88999939   5.51999998  56.36000061
C    16.25000000   6.01000023  57.52999878
C    14.85999966   6.06999969  57.47000122
C    24.76000023   6.88000011  56.83000183
H    25.18675995   6.21852350  57.58394241
H    20.29999924   7.07000017  59.02999878
H    18.96999931   4.85000038  54.78000259
H    21.47999954   5.19000006  53.97999573
H    23.81000137   5.69000006  54.59000015
H    22.42000198   7.44999981  58.33000183
H    14.26000023   6.52999973  58.23999786
H    25.34000015   6.84999990  55.89000320
H    24.73999977   7.92999983  57.15999985
S    13.76000023   4.21999979  54.10999680
C    11.05999947   4.32999992  54.72999954
C    12.35000038   4.63999987  55.10000229
C    12.68000031   5.33999968  56.30000305
C    11.61999893   5.60999966  57.15000153
C    10.31000042   5.12000036  56.95000076
C     9.30000019   5.29999971  57.94000244
C     8.10999966   4.61999989  57.84999847
C     7.78999996   4.09999990  56.56999969
C     8.71999931   3.93000007  55.56999969
C    10.05000019   4.42000008  55.72000122
C    14.11000061   5.55999994  56.39999771
C    14.80999947   5.01999950  55.30000305
C    16.18999863   5.10999966  55.21999741
C     6.40999985   3.51999998  56.38000107
H     5.88081694   4.01342726  55.56477356
H    10.88999939   3.88000011  53.75999832
H    11.82000065   5.98000002  58.15000153
H     9.57999992   5.84999990  58.83999634
H     7.44999981   4.56999969  58.72000122
H     8.59000015   3.30000019  54.68999863
H    16.65999985   4.69000006  54.33000183
H     5.91000032   3.78999996  57.31999969
H     6.34000015   2.44000006  56.18000031
S    14.14000034   1.92000008  50.97000122
C    11.50000000   1.66999996  51.81000137
C    12.82999992   1.48000002  52.09000015
C    13.26000023   1.01999998  53.36999893
C    12.31999969   0.79999995  54.36999893
C    10.93999958   0.87000000  54.08000183
C     9.96000004   0.32999998  54.95999908
C     8.63000011   0.24000001  54.64000320
C     8.26000023   0.96000004  53.47000122
C     9.13999939   1.49000001  52.55000305
C    10.52000046   1.25999999  52.76000214
C    14.70999908   1.11000001  53.44999695
C    15.31000042   1.62000000  52.27000427
C    16.61000061   2.10999990  52.25999832
C     6.81999969   1.28999996  53.13999939
H     6.52876568   0.72884113  52.25209045
H    11.35000038   2.06999993  50.80999756
H    12.55000019   0.50000000  55.38999939
H    10.34000015  -0.13000000  55.86999893
H     7.92000008  -0.17000002  55.34999847
H     8.80999947   1.89999998  51.59999847
H    17.02999878   2.48000002  51.32999802
H     6.12999964   1.04999995  53.95999908
H     6.81999969   2.38000011  53.09000015
S    18.05999947   1.01999998  55.80999756
C    20.62999916   1.80999994  55.17000198
C    19.30999947   1.75999999  54.79000092
C    18.78999901   2.17999983  53.52000427
C    19.69000053   2.72000027  52.63000107
C    21.07000160   2.73000002  52.91999817
C    22.01999855   3.15000010  51.95000076
C    23.36000061   3.19000006  52.23999786
C    23.84000015   2.56000018  53.41999817
C    22.95999908   2.04999995  54.34999847
C    21.55999947   2.21000004  54.18000031
C    17.35999870   1.89999998  53.43000031
C    16.84000015   1.21000004  54.54999924
C    15.50000000   0.82999998  54.56999969
C    25.29999924   2.24000001  53.61000061
H    25.72125435   2.58985567  54.55246735
H    20.95999908   1.39999998  56.11999893
H    19.47000122   3.07000017  51.62000275
H    21.51000023   3.60000014  51.10000229
H    24.02000046   3.55999994  51.45999908
H    23.26000023   1.51999998  55.25000000
H    15.05000019   0.46000001  55.48999786
H    25.79999924   2.89000010  52.87000275
H    25.50000000   1.19999993  53.30999756
