96

S    17.95999908   6.12999964  58.66000366
C    20.55999947   6.42000008  57.84000015
C    19.30999947   5.93999958  57.52999878
C    18.95000076   5.42000008  56.24000168
C    19.98999977   5.13000011  55.38000107
C    21.31000137   5.55999994  55.68000031
C    22.34000015   5.45000029  54.71000290
C    23.57999992   6.01999998  54.93000031
C    23.88999939   6.67000008  56.14999771
C    22.89999962   6.80000019  57.09999847
C    21.63000107   6.19000006  56.93000031
C    17.50000000   5.38999987  56.16000366
C    16.82999992   5.78999996  57.32999802
C    15.44000053   5.84999990  57.44999695
C    25.20999908   7.34000015  56.45000076
H    25.63549423   6.80813360  57.30098343
H    20.72000122   7.11999989  58.66000366
H    19.85000038   4.73000002  54.38000107
H    22.01000023   5.12000036  53.73000336
H    24.28999901   6.01999998  54.10999680
H    23.15000153   7.26000023  58.04999924
H    14.93999958   5.92000008  58.40999985
H    25.89999962   7.20000029  55.61000061
H    25.05000114   8.40999985  56.62000275
S    14.22000027   4.56999969  53.92000198
C    11.65999985   4.00000000  54.84000397
C    12.84000015   4.67999983  55.02999878
C    13.20000076   5.23000002  56.30000305
C    12.25000000   5.40999985  57.29999924
C    10.93999958   5.00999975  56.97999954
C     9.89999962   5.23000002  57.93000031
C     8.60000038   4.86999989  57.69000244
C     8.27000046   4.21999979  56.47999573
C     9.30000019   3.79999995  55.65999985
C    10.65999985   4.19000006  55.83000183
C    14.63000107   5.46000004  56.38000107
C    15.32999992   5.01999950  55.22999573
C    16.70999908   4.86000013  55.13000107
C     6.84999990   3.75999975  56.23000336
H     6.35184956   4.38624573  55.48989487
H    11.39000034   3.48000002  53.92000198
H    12.53000069   5.72000027  58.29999924
H    10.29000092   5.65999985  58.85000229
H     7.77999973   5.05000019  58.39000320
H     9.11999989   3.35999990  54.68000031
H    17.14999962   4.44999981  54.22999954
H     6.30000019   3.82999992  57.16999817
H     6.83000040   2.69000006  55.97000122
S    14.65999985   2.61000013  51.11999893
C    12.02999973   1.80000007  51.84000015
C    13.40000057   1.71000004  51.98999786
C    13.90999985   1.03999996  53.13999939
C    13.04999924   0.41999999  54.02000046
C    11.64000034   0.48000002  53.87000275
C    10.70000076  -0.08000001  54.78000259
C     9.35999966   0.17999999  54.68000031
C     8.85000038   0.75999999  53.47999954
C     9.71000004   1.31999993  52.56999969
C    11.10999966   1.23000002  52.76000214
C    15.36000061   1.21000004  53.26000214
C    15.90999985   2.02999997  52.23999786
C    17.21999931   2.50000000  52.19999695
C     7.39000034   1.14999998  53.39000320
H     6.84910536   0.46676451  52.73523331
H    11.75000000   2.47000003  51.03000259
H    13.38000107  -0.16000001  54.87999725
H    11.21000099  -0.56999999  55.61000061
H     8.73999977  -0.17000002  55.50000000
H     9.35999966   1.90999997  51.72000122
H    17.50000000   3.10999990  51.36000061
H     6.94000006   1.36000013  54.36999893
H     7.44000006   2.14000010  52.93000031
S    18.71999931   0.88999999  55.59000015
C    21.35000038   1.47000003  54.87999725
C    20.00999832   1.56000006  54.56999969
C    19.48999977   2.15000010  53.37999725
C    20.36999893   2.70000005  52.45999908
C    21.75000000   2.57999992  52.74000168
C    22.67999840   3.00999999  51.75000000
C    24.03000069   3.02999997  52.00000000
C    24.56999969   2.71000004  53.27000046
C    23.68000031   2.17999983  54.18000031
C    22.27999878   2.02999997  53.95999908
C    18.04000092   2.04999995  53.23999786
C    17.53999901   1.28000009  54.31999969
C    16.21000099   0.88000000  54.31999969
C    26.01000023   2.87999988  53.69999695
H    26.05260849   3.10724139  54.76519394
H    21.70999908   1.10000002  55.84000015
H    19.90999985   3.00000000  51.52000046
H    22.32000160   3.45000005  50.81999969
H    24.73999977   3.42000008  51.27999878
H    23.98999977   1.71000004  55.11000061
H    15.70000076   0.38000000  55.13000107
H    26.59000015   3.58000016  53.08000183
H    26.48999977   1.89999998  53.59000397
