96

S    17.02999878   6.12999964  58.47000122
C    19.56999969   6.53999996  57.74000168
C    18.38999939   5.95000029  57.35000229
C    17.94999886   5.60999966  56.03000259
C    18.92000008   5.78999996  55.06000137
C    20.26000023   6.05000019  55.45000076
C    21.28999901   6.17999983  54.47999954
C    22.60000038   6.48999977  54.75000000
C    22.92000008   6.88000011  56.07999802
C    21.94999886   6.84999990  57.05999756
C    20.62000084   6.42000008  56.79999924
C    16.54000092   5.25000000  56.00000000
C    15.90000057   5.58000040  57.22000122
C    14.51000023   5.55999994  57.34000397
C    24.27999878   7.44000006  56.39999771
H    24.80437469   7.06443501  57.27867889
H    19.82999992   7.00000000  58.68999863
H    18.72999954   5.84999990  53.99000168
H    21.04999924   6.05999994  53.41999817
H    23.29999924   6.47000027  53.93000031
H    22.20999908   7.02000046  58.09999847
H    14.14000034   5.93999958  58.29000092
H    24.86000061   7.40999985  55.47000122
H    24.25000000   8.52000046  56.63000107
S    13.17999935   4.88999987  53.73000336
C    10.50000000   4.61000013  54.41999817
C    11.78999996   4.88999987  54.82999802
C    12.20999908   5.09000015  56.18000031
C    11.19999981   5.01999950  57.11999893
C     9.86999989   4.65000010  56.83000183
C     8.80000019   4.42999983  57.75000000
C     7.50999975   4.18000031  57.36999893
C     7.20000029   4.05000019  55.98999786
C     8.21000004   4.11000013  55.06000137
C     9.55000019   4.41000032  55.45000076
C    13.64999962   5.26000023  56.27999878
C    14.32999992   4.96000004  55.06999969
C    15.71000004   5.05999994  54.89999771
C     5.80999947   3.63000011  55.59000015
H     5.20450926   4.46343994  55.23382568
H    10.26999950   4.32999992  53.39000320
H    11.50000000   5.26000023  58.13999939
H     9.06000042   4.48000002  58.80000305
H     6.71999979   4.09999990  58.11999893
H     8.02999973   3.89999986  54.01000214
H    16.11999893   5.19000006  53.89999771
H     5.44000053   3.17999983  56.52999878
H     5.72000027   2.82000017  54.86000061
S    13.68999958   2.59999990  50.84999847
C    11.05000019   1.85000002  51.53999710
C    12.41000080   1.79000008  51.76000214
C    12.86000061   1.16999996  52.97000122
C    12.02999973   0.50000000  53.85000229
C    10.65000057   0.71000004  53.64999771
C     9.75000000   0.32000002  54.68000031
C     8.38999939   0.43000001  54.47999954
C     7.88000011   0.93000001  53.26000214
C     8.71000004   1.41000009  52.25999832
C    10.11999989   1.28999996  52.43999863
C    14.23999977   1.57000005  53.22999954
C    14.84000015   2.28999996  52.16999817
C    16.15999985   2.72000027  52.18000031
C     6.39999962   0.88999999  52.94000244
H     6.22251987   0.21557534  52.10229492
H    10.72999954   2.38000011  50.63999939
H    12.42000008   0.02000000  54.73999786
H    10.11000061  -0.19000000  55.56999969
H     7.64999962   0.14000000  55.21999741
H     8.38999939   1.87000012  51.32999802
H    16.60000038   3.09999990  51.25999832
H     5.92000008   0.71000004  53.89999771
H     6.12999964   1.89999998  52.60000229
S    17.53999901   1.01999998  55.52999878
C    20.13000107   1.72999990  55.00000000
C    18.81000137   1.87000012  54.64000320
C    18.35000038   2.59999990  53.50000000
C    19.27999878   3.23000002  52.68000031
C    20.65000153   3.08999991  53.02999878
C    21.61999893   3.65999985  52.15999985
C    22.95999908   3.33999991  52.25999832
C    23.38000107   2.63000011  53.40999985
C    22.47999954   2.13000011  54.33000183
C    21.09000015   2.42000008  54.22000122
C    16.93000031   2.38000011  53.29999924
C    16.35000038   1.64000010  54.36000061
C    15.01999950   1.23000002  54.34000015
C    24.77999878   2.05999994  53.55999756
H    25.43426323   2.54358673  54.28538132
H    20.45999908   0.92000002  55.65000153
H    18.97999954   3.82999992  51.83000183
H    21.27000046   4.17000008  51.26999664
H    23.69999886   3.58000016  51.51000214
H    22.82999992   1.50000000  55.13999939
H    14.73000050   0.62000000  55.19000244
H    25.32999992   2.09999990  52.61000061
H    24.67000008   0.97999996  53.69999695
