96

S    17.77000046   6.61999989  58.57999802
C    20.45000076   6.71000004  57.81999969
C    19.19000053   6.21000004  57.58999634
C    18.89000130   5.56999969  56.35000229
C    19.93999863   5.36000013  55.47000122
C    21.25999832   5.80999947  55.68000031
C    22.32000160   5.80999947  54.72999954
C    23.55999947   6.35999966  54.94999695
C    23.85999870   6.86999989  56.24000168
C    22.86999893   6.84999990  57.18999863
C    21.54000092   6.38999987  56.97000122
C    17.45000076   5.51000023  56.13999939
C    16.75000000   5.95000029  57.29000092
C    15.36999893   5.88999987  57.44999695
C    25.26000023   7.31999969  56.59000015
H    25.67341423   6.68562317  57.37406158
H    20.55999947   7.49000025  58.56999969
H    19.59000015   4.92000008  54.54000092
H    22.13999939   5.36999989  53.75000000
H    24.34000015   6.12999964  54.22999954
H    23.03999901   7.26000023  58.18000031
H    14.88999939   6.19000006  58.37999725
H    25.78000069   7.21000004  55.63000107
H    25.20000076   8.34000015  56.97999954
S    14.15999985   4.57999992  53.88999939
C    11.54999924   4.18000031  54.82999802
C    12.79000092   4.75000000  55.00000000
C    13.17000008   5.45000029  56.19999695
C    12.20000076   5.64000034  57.15999985
C    10.85999966   5.26999998  56.90000153
C     9.80000019   5.38000011  57.84000015
C     8.51000023   4.92999983  57.65999603
C     8.19999981   4.30999994  56.42000198
C     9.19999981   4.00999975  55.52000046
C    10.48999977   4.56999969  55.68999863
C    14.61999989   5.51000023  56.32999802
C    15.29999924   5.07999992  55.15999603
C    16.68000031   5.07000017  55.05000305
C     6.90000010   3.55999994  56.22000122
H     6.13657093   4.13792276  55.69915390
H    11.30000019   3.56999993  53.96999741
H    12.48999977   6.02999973  58.13000107
H     9.92999935   5.82999992  58.82999802
H     7.82000017   4.86000013  58.48999786
H     9.11000061   3.19000006  54.81999969
H    17.07999992   4.69000006  54.10999680
H     6.53999996   3.22000003  57.19999695
H     7.11999989   2.61000013  55.70999908
S    14.48999977   2.36000013  51.13999939
C    11.89000034   1.54999995  51.84000015
C    13.22999954   1.58000004  52.12999725
C    13.73000050   1.04999995  53.36000061
C    12.89999962   0.44000000  54.27999878
C    11.51000023   0.44000000  54.00000000
C    10.57000065  -0.09999999  54.92000198
C     9.22000027  -0.09999999  54.66999817
C     8.73000050   0.56999999  53.52000427
C     9.57999992   1.05999994  52.55000305
C    10.98000050   1.00999999  52.78999710
C    15.17000008   1.23000002  53.46000290
C    15.71000004   1.94999993  52.36000061
C    17.05000114   2.31999993  52.34000397
C     7.26000023   0.90999997  53.54000092
H     6.63375425   0.41184971  52.79989243
H    11.40999985   2.04999995  51.00000000
H    13.17999935   0.17000002  55.30000305
H    10.77000046  -0.56999999  55.87999725
H     8.56000042  -0.48999998  55.44000244
H     9.27999973   1.51999998  51.62000275
H    17.46999931   2.94999981  51.56000137
H     6.78999996   0.76999998  54.52000046
H     7.26999998   2.00999999  53.52000427
S    18.59000015   0.65999997  55.61999893
C    21.22999954   1.31999993  54.93000031
C    19.88999939   1.36999989  54.64000320
C    19.31999969   2.02999997  53.50999832
C    20.17000008   2.75000000  52.68000031
C    21.56999969   2.73999977  52.87000275
C    22.39000130   3.45000005  51.93999863
C    23.74000168   3.48000002  52.16999817
C    24.27000046   2.84000015  53.31999969
C    23.46999931   2.11999989  54.18000031
C    22.06000137   2.02999997  54.02000046
C    17.88999939   1.85000002  53.34999847
C    17.34000015   1.12000000  54.45000076
C    15.98999977   0.82999998  54.52000046
C    25.76999855   2.99000001  53.50999832
H    26.02497673   2.33839154  54.34575653
H    21.55999947   0.93999994  55.90000153
H    19.71999931   3.31999993  51.88000107
H    21.96000099   4.05999994  51.14999771
H    24.48999786   4.00000000  51.59000015
H    23.92000008   1.62000000  55.02999878
H    15.60999966   0.39999998  55.45000076
H    25.95999908   4.02999973  53.79000092
H    26.38000107   2.75999999  52.63000107
