96

S    15.80000019   6.15000010  58.63999939
C    18.52000046   6.14000034  57.90000153
C    17.20999908   5.80999947  57.62000275
C    16.82999992   5.33999968  56.32999802
C    17.85000038   5.13999987  55.40999985
C    19.19000053   5.52999973  55.61999893
C    20.17000008   5.28999996  54.61999893
C    21.45000076   5.78000021  54.75999832
C    21.73999977   6.44000006  55.97999954
C    20.86000061   6.58999968  57.02000046
C    19.52999878   6.10000038  56.90000153
C    15.39999962   5.19000006  56.11999893
C    14.75000000   5.55999994  57.31999969
C    13.36999989   5.51999998  57.43999863
C    23.09999847   7.07999992  56.18999863
H    23.74813461   6.45323277  56.80252075
H    18.86000061   6.56000042  58.83999634
H    17.63000107   4.86999989  54.38000107
H    19.79999924   4.81999969  53.70999908
H    22.20999908   5.73000002  53.97999573
H    21.11999893   7.09000015  57.95000076
H    12.82999992   5.75000000  58.36000061
H    23.54999924   7.40999985  55.24000168
H    22.93999863   7.99000025  56.77000046
S    12.18999958   4.26000023  53.81999969
C     9.50000000   4.18000031  54.55999756
C    10.80000019   4.46000004  54.91000366
C    11.23000050   4.86000013  56.22000122
C    10.24000072   4.88999987  57.18999863
C     8.88000011   4.61000013  56.90000153
C     7.95000029   4.51999998  57.97999954
C     6.63999987   4.19999981  57.68000031
C     6.28000021   3.75999975  56.38000107
C     7.18999958   3.76999998  55.34999847
C     8.50000000   4.28999996  55.54999924
C    12.65999985   5.12000036  56.31000137
C    13.30000019   4.82999992  55.07999802
C    14.68999958   4.86000013  54.95999908
C     4.86000013   3.32999992  56.07999802
H     4.32117891   3.99643636  55.40647507
H     9.27999973   3.82999992  53.55999756
H    10.57999992   5.10999966  58.18999863
H     8.30000019   4.72000027  58.99000168
H     5.92999983   4.23000002  58.48999786
H     7.04999971   3.40000010  54.33000183
H    15.14000034   4.78999996  53.97999573
H     4.42000008   3.17999983  57.08000183
H     4.88999987   2.30999994  55.66999817
S    12.94999981   2.31999993  50.97000122
C    10.34999943   1.43000007  51.59999847
C    11.71000004   1.38999999  51.83000183
C    12.30000019   0.83999997  53.01000214
C    11.46999931   0.24000001  53.95000076
C    10.06000042   0.28000000  53.79000092
C     9.17000008  -0.28000000  54.73999786
C     7.79999971  -0.27000001  54.61000061
C     7.25000000   0.34999999  53.46000290
C     8.09000015   0.93999994  52.55000305
C     9.51000023   0.90999997  52.61000061
C    13.71000099   1.12000000  53.22999954
C    14.21000004   1.88999999  52.15000153
C    15.54999924   2.22000003  52.02000046
C     5.75000000   0.44000000  53.29999924
H     5.46537304  -0.32849371  52.58131790
H     9.86999989   1.92000008  50.76000214
H    11.89000034  -0.11000000  54.87999725
H     9.65999985  -0.82000005  55.54000092
H     7.27999973  -0.87000000  55.35999680
H     7.63999987   1.33000004  51.63999939
H    15.98000050   2.77999997  51.18999863
H     5.26999998   0.39000002  54.29000092
H     5.64000034   1.44999993  52.88000107
S    17.20999908   0.51999998  55.22999573
C    19.71999931   1.38999999  54.51000214
C    18.37000084   1.47000003  54.27999878
C    17.86000061   2.14000010  53.11999893
C    18.71999931   2.79999995  52.27000427
C    20.10999870   2.63000011  52.44999695
C    21.07000160   3.21000004  51.56999969
C    22.42000198   3.17999983  51.81000137
C    22.95000076   2.46000004  52.90999985
C    22.06000137   1.87999988  53.77999878
C    20.65000153   1.97000003  53.61000061
C    16.43000031   1.87000012  53.04999924
C    15.93999958   1.13000000  54.15999985
C    14.60000038   0.75000000  54.23999786
C    24.41999817   2.21000004  53.16999817
H    24.78894615   2.55766201  54.13493729
H    20.00999832   0.71999997  55.31999969
H    18.29000092   3.24000001  51.37000275
H    20.52999878   3.79999995  50.83000183
H    23.03999901   3.68999982  51.07999802
H    22.44999886   1.36999989  54.65999985
H    14.32000065   0.24000001  55.15999603
H    24.97999954   2.73000002  52.38999939
H    24.46000099   1.13000000  52.98999786
