96

S    18.22999954   6.35999966  58.81000137
C    20.93000031   6.60000038  58.11999893
C    19.67000008   6.15000010  57.80000305
C    19.38999939   5.73000002  56.45999908
C    20.42000008   5.60999966  55.54999924
C    21.70999908   6.11000013  55.84999847
C    22.84000015   5.95000029  55.00000000
C    24.11999893   6.34000015  55.31999969
C    24.27999878   7.09000015  56.51000214
C    23.26000023   7.18999958  57.43000031
C    21.97999954   6.63000011  57.16999817
C    17.94000053   5.64000034  56.27999878
C    17.19000053   6.10000038  57.38999939
C    15.80999947   6.12999964  57.48000336
C    25.65999985   7.59999990  56.86999893
H    26.03828430   6.97190380  57.67653275
H    21.24000168   6.69000053  59.15999985
H    20.10000038   5.17000008  54.61000061
H    22.65000153   5.55000019  54.00000000
H    24.96999931   6.28999996  54.65000153
H    23.39999962   7.63999987  58.40999985
H    15.39000034   6.37000036  58.46000290
H    26.28000069   7.53000021  55.97000122
H    25.61000061   8.64000034  57.22999954
S    14.72000027   4.76999998  53.93000031
C    12.10999966   4.34999990  54.77000427
C    13.35999966   4.82999992  55.06999969
C    13.68000031   5.63000011  56.22000122
C    12.68000031   5.73999977  57.15999985
C    11.36000061   5.31000042  56.90999985
C    10.31000042   5.59000015  57.83000183
C     9.00000000   5.33999968  57.51999664
C     8.69999981   4.61999989  56.32999802
C     9.70000076   4.26000023  55.45000076
C    11.05999947   4.63000011  55.68000031
C    15.11999989   5.84000015  56.30000305
C    15.84000015   5.38999987  55.15999603
C    17.22999954   5.25000000  55.13999939
C     7.27999973   4.17000008  56.06999969
H     6.73434353   5.04163313  55.70859146
H    11.84999943   3.98000002  53.77999878
H    12.92000008   6.11000013  58.15999985
H    10.54999924   6.21999979  58.68000031
H     8.23000050   5.56999969  58.25000000
H     9.46000004   3.68000007  54.55999756
H    17.64999962   4.69999981  54.31000137
H     6.88000011   3.88000011  57.04000092
H     7.21000004   3.37000012  55.31999969
S    14.65999985   2.51999998  50.93999863
C    12.05000019   1.75999999  51.69000244
C    13.40999985   1.72999990  51.91999817
C    13.96999931   1.28999996  53.15999985
C    13.05999947   0.81000000  54.09000015
C    11.65999985   0.88999999  53.94000244
C    10.70000076   0.32999998  54.82999802
C     9.34000015   0.39000002  54.61000061
C     8.85000038   1.05999994  53.46000290
C     9.72000027   1.38999999  52.44999695
C    11.13000011   1.35000002  52.69000244
C    15.39999962   1.49000001  53.29999924
C    15.88999939   2.22000003  52.18000031
C    17.21999931   2.59000015  52.09000015
C     7.37999964   1.36999989  53.27000046
H     6.91912794   0.74605048  52.50424194
H    11.71000004   2.02999997  50.68999863
H    13.45999908   0.23000000  54.92000198
H    10.98999977  -0.25000000  55.70000076
H     8.64999962  -0.14999999  55.26000214
H     9.40999985   1.77999997  51.49000168
H    17.61000061   3.08999991  51.20999908
H     6.89000034   1.30999994  54.23999786
H     7.32999992   2.45000005  53.08000183
S    18.82999992   0.94999999  55.34000015
C    21.44000053   1.57000005  54.50000000
C    20.07999802   1.65999997  54.31000137
C    19.52000046   2.34999990  53.18000031
C    20.36999893   2.96999979  52.29000092
C    21.77999878   2.91000009  52.42000198
C    22.75000000   3.52999973  51.58000183
C    24.10000038   3.37000012  51.76000214
C    24.57999992   2.76999998  52.95999908
C    23.69999886   2.13000011  53.79000092
C    22.29000092   2.19000006  53.55999756
C    18.07999992   2.20000005  53.13000107
C    17.54999924   1.48000002  54.23999786
C    16.20000076   1.19000006  54.40999985
C    26.07000160   2.66000009  53.15999985
H    26.32605362   2.98006892  54.16999817
H    21.86000061   1.08000004  55.37000275
H    19.98999977   3.51000023  51.42000198
H    22.46000099   4.05999994  50.68000031
H    24.79000092   3.78999996  51.02000427
H    24.00000000   1.43999994  54.58000183
H    15.77000046   0.67000002  55.25000000
H    26.70999908   3.09999990  52.37999725
H    26.22999954   1.58000004  53.00000000
