96

S    18.05999947   6.02999973  58.68000031
C    20.73999786   6.17000008  57.97999954
C    19.47999954   5.72000027  57.65999603
C    19.11000061   5.28999996  56.33999634
C    20.17000008   5.23000002  55.45000076
C    21.50000000   5.63000011  55.70999908
C    22.56000137   5.56999969  54.75999832
C    23.81999969   5.96000004  55.15999603
C    24.09000015   6.60000038  56.39999771
C    23.08000183   6.63999987  57.32999802
C    21.78999901   6.11000013  57.02999878
C    17.67000008   5.26000023  56.11999893
C    17.01000023   5.58000040  57.32999802
C    15.62000084   5.47999954  57.44999695
C    25.51000214   6.91999960  56.81000137
H    25.80907059   6.29337788  57.65024185
H    20.92000008   6.51999998  58.99000168
H    19.93999863   4.81999969  54.47000122
H    22.36000061   5.19000006  53.75999832
H    24.63000107   5.63000011  54.52000046
H    23.22000122   7.02000046  58.34000015
H    15.11999989   5.88999987  58.31999969
H    26.11999893   6.83000040  55.90000153
H    25.48999977   7.96999979  57.11999893
S    14.40000057   4.55999994  53.77999878
C    11.73999977   4.30999994  54.69999695
C    13.02999973   4.75000000  54.88999939
C    13.40999985   5.19000006  56.19999695
C    12.43999958   5.40999985  57.15000153
C    11.07999992   5.09000015  56.90999985
C    10.03000069   5.26000023  57.85999680
C     8.73000050   4.92999983  57.56999969
C     8.38999939   4.19000006  56.40999603
C     9.40999985   3.91999984  55.52000046
C    10.72999954   4.44000006  55.68000031
C    14.85999966   5.15999985  56.31999969
C    15.53999996   4.86999989  55.10000229
C    16.92000008   4.84000015  55.00999832
C     6.98999977   3.65000010  56.22000122
H     6.45600557   4.11991549  55.39408875
H    11.54000092   3.68000007  53.82999802
H    12.65999985   5.66999960  58.18999863
H    10.26000023   5.64000034  58.85000229
H     7.92999983   5.17000008  58.27000046
H     9.23999977   3.45000005  54.55999756
H    17.38000107   4.34999990  54.15999985
H     6.39999962   3.86999989  57.11999893
H     7.05999947   2.56000018  56.06999969
S    14.78999996   2.00000000  51.22000122
C    12.18000031   1.52999997  52.05999756
C    13.53000069   1.35000002  52.29000092
C    14.04000092   0.86000001  53.53000259
C    13.17999935   0.25999999  54.43999863
C    11.78999996   0.25000000  54.16999817
C    10.84000015  -0.28999999  55.07999802
C     9.48999977  -0.09000000  54.91000366
C     8.98999977   0.63000000  53.80000305
C     9.90999985   1.19000006  52.94000244
C    11.30000019   0.90999997  52.98999786
C    15.44999981   1.19999993  53.64999771
C    15.98000050   1.89999998  52.54000092
C    17.29999924   2.29999995  52.42000198
C     7.50000000   0.86000001  53.69999695
H     7.07292223   0.42580411  52.79601669
H    11.77999973   2.27999997  51.38999939
H    13.53000069  -0.14000000  55.38000107
H    11.13999939  -0.69999999  56.04000092
H     8.82000065  -0.43000001  55.70000076
H     9.44000053   1.75999999  52.15000153
H    17.71000099   2.66999984  51.49000168
H     7.02000046   0.34999999  54.54999924
H     7.28999996   1.93000007  53.83999634
S    18.86000061   0.73000002  55.66999817
C    21.47000122   1.24000001  54.97000122
C    20.13999939   1.43000007  54.65999985
C    19.67000008   2.16000009  53.52000427
C    20.59999847   2.71000004  52.65999603
C    21.97999954   2.50999975  52.90999985
C    22.90999985   3.02999997  51.97999954
C    24.25000000   2.80999994  52.22000122
C    24.70999908   2.27999997  53.44999695
C    23.81999969   1.77999997  54.38000107
C    22.42000198   1.87000012  54.12000275
C    18.22000122   2.03999996  53.44999695
C    17.63000107   1.35000002  54.54999924
C    16.31000137   0.99000001  54.73999786
C    26.18000031   2.04999995  53.69999695
H    26.46515465   2.14267540  54.74794769
H    21.76000214   0.67000002  55.84000015
H    20.32999992   3.28000021  51.77999878
H    22.60000038   3.65999985  51.14999771
H    24.96000099   3.09999990  51.45000076
H    24.20000076   1.15999997  55.19000244
H    15.95000076   0.56999999  55.68000031
H    26.75000000   2.71000004  53.02999878
H    26.32999802   1.01999998  53.36000061
