96

S    17.43999863   6.58999968  58.81999969
C    20.15999985   6.51999998  58.09000015
C    18.86999893   6.10000038  57.90000153
C    18.50000000   5.55999994  56.62000275
C    19.43000031   5.33999968  55.61999893
C    20.75000000   5.84999990  55.77999878
C    21.77000046   5.61999989  54.80999756
C    23.09999847   5.92999983  54.99000168
C    23.38999939   6.63999987  56.18000031
C    22.47999954   6.78999996  57.19999695
C    21.11999893   6.38999987  57.04999924
C    17.05999947   5.63000011  56.40999603
C    16.32999992   6.19999981  57.49000168
C    14.94999981   6.30999994  57.56000137
C    24.75000000   7.21000004  56.52000046
H    25.25435257   6.48543549  57.15932465
H    20.51000214   7.03000021  58.99000168
H    19.17000008   4.80999994  54.71000290
H    21.45999908   5.10999966  53.89999771
H    23.90000153   5.72000027  54.29000092
H    22.72999954   7.39000034  58.06999969
H    14.37000084   6.43000031  58.47000122
H    25.23999977   7.40999985  55.56000137
H    24.61999893   8.21000004  56.95999908
S    13.86000061   4.30999994  54.20999908
C    11.19999981   4.23000002  54.98000336
C    12.46999931   4.65999985  55.26000214
C    12.84000015   5.46000004  56.38000107
C    11.87999916   5.65999985  57.36000061
C    10.57000065   5.21000004  57.09000015
C     9.52000046   5.42999983  58.02999878
C     8.23999977   4.97000027  57.77999878
C     7.86999989   4.26000023  56.60999680
C     8.84000015   4.05999994  55.65999985
C    10.15999985   4.51999998  55.90000153
C    14.23999977   5.86000013  56.44000244
C    14.88000011   5.19000006  55.37000275
C    16.27000046   5.17000008  55.34999847
C     6.50000000   3.61999989  56.45000076
H     5.87075615   4.17773867  55.75640106
H    10.97000027   3.61999989  54.10999680
H    12.10999966   6.11999989  58.31999969
H     9.72999954   5.95000029  58.95999908
H     7.63000011   5.13999987  58.66000366
H     8.65999985   3.49000001  54.75000000
H    16.82999992   4.61000013  54.61000061
H     5.95000029   3.38000011  57.36999893
H     6.67000008   2.61000013  56.05999756
S    17.73999977   6.86999989  52.78999710
C    20.38999939   7.30999994  51.88999939
C    19.14999962   6.75000000  51.72000122
C    18.72999954   6.26999950  50.44000244
C    19.71999931   6.19999981  49.47999954
C    21.04999924   6.65000010  49.68999863
C    22.03000069   6.60000038  48.67000198
C    23.31000137   7.07999992  48.85000229
C    23.67000198   7.83999968  49.99000168
C    22.69000053   7.95000029  50.94999695
C    21.42000008   7.31999969  50.90999985
C    17.28999901   6.03999996  50.34999847
C    16.57999992   6.38999987  51.52999878
C    15.19999981   6.30999994  51.63000107
C    25.15000153   8.05000019  50.24000168
H    25.61975670   7.30977917  50.88769150
H    20.53999901   7.75000000  52.87000275
H    19.52999878   5.98000002  48.43000031
H    21.76000214   6.14000034  47.71999741
H    24.13999939   6.78999996  48.20000076
H    23.15000153   8.30999947  51.86999893
H    14.63999939   6.52999973  52.54000092
H    25.61000061   8.14000034  49.25000000
H    25.38000107   9.01000023  50.72999954
S    14.13000011   4.57999992  48.22000122
C    11.46000004   4.32999992  49.09000015
C    12.75000000   4.75000000  49.31999969
C    13.07999992   5.64000034  50.40000153
C    12.05999947   6.01999998  51.25999832
C    10.75000000   5.50000000  51.09000397
C     9.76000023   5.64000034  52.09999847
C     8.47000027   5.19999981  51.91999817
C     8.10000038   4.44000006  50.77999878
C     9.10000038   4.09000015  49.88999939
C    10.42000008   4.61999989  50.00999832
C    14.52000046   5.82999992  50.51000214
C    15.24000072   5.36999989  49.36999893
C    16.61000061   5.51000023  49.25000000
C     6.72999954   3.81999993  50.72000122
H     6.21171331   4.24598885  49.86092377
H    11.18000031   3.63000011  48.30999756
H    12.23999977   6.56000042  52.18000031
H    10.01000023   6.21999979  52.98999786
H     7.68000031   5.36999989  52.64999771
H     8.94999981   3.38999987  49.08000183
H    17.11000061   5.29999971  48.30999756
H     6.28999996   4.21000004  51.63999939
H     6.65000010   2.73000002  50.77000046
