96

S    17.43999863   6.12999964  58.56999969
C    20.03999901   6.56000042  57.75000000
C    18.79999924   6.05000019  57.43999863
C    18.43000031   5.47999954  56.18000031
C    19.43000031   5.38000011  55.22999573
C    20.72000122   5.89999962  55.45000076
C    21.68999863   5.97000027  54.40000153
C    22.98000145   6.38999987  54.64000320
C    23.31999969   6.83000040  55.94999695
C    22.34000015   6.98000002  56.90000153
C    21.01000023   6.48000002  56.72999954
C    16.98999977   5.23000002  56.17000198
C    16.28000069   5.55999994  57.35000229
C    14.89999962   5.51999998  57.50000000
C    24.70999908   7.35000038  56.23000336
H    25.04349327   6.87459373  57.15243149
H    20.28000069   6.96000004  58.74000168
H    19.18000031   4.92999983  54.27000046
H    21.31000137   5.73999977  53.40999985
H    23.68000031   6.51999998  53.81999969
H    22.56000137   7.49000025  57.84000015
H    14.44000053   5.80999947  58.43999863
H    25.38000107   7.07000017  55.40999985
H    24.70000076   8.43999958  56.36000061
S    13.71000099   4.33999968  53.85000229
C    11.11999989   3.84000015  54.80999756
C    12.36999989   4.40000010  55.00000000
C    12.72999954   4.88000011  56.30000305
C    11.80999947   4.92999983  57.32999802
C    10.48999977   4.44999981  57.11999893
C     9.48999977   4.78999996  58.06999969
C     8.21000004   4.40000010  57.76000214
C     7.83999968   3.61000013  56.63000107
C     8.82000065   3.42000008  55.68000031
C    10.17000008   3.84000015  55.86000061
C    14.17000008   5.07000017  56.39999771
C    14.81999969   4.74000025  55.18000031
C    16.21000099   4.76000023  55.11000061
C     6.42000008   3.17999983  56.37000275
H     5.85316849   3.92396617  55.81025696
H    10.77999973   3.54999995  53.81999969
H    12.09000015   5.19000006  58.34000015
H     9.71000004   5.29999971  59.01000214
H     7.40999985   4.59999990  58.47000122
H     8.60000038   3.00000000  54.69999695
H    16.61999893   4.65000010  54.10999680
H     5.98999977   3.00999999  57.36000061
H     6.38000011   2.19000006  55.90999985
S    17.31999969   6.78999996  52.54000092
C    19.92000008   7.23000002  51.66999817
C    18.71000099   6.61999989  51.45000076
C    18.39999962   5.79999971  50.31000137
C    19.34999847   5.84000015  49.31000137
C    20.63999939   6.39999962  49.47000122
C    21.68000031   6.34000015  48.50000000
C    22.95000076   6.80000019  48.75000000
C    23.22999954   7.50000000  49.95999908
C    22.23999977   7.63000011  50.90999985
C    20.93000031   7.11000013  50.68999863
C    16.95999908   5.55000019  50.22999573
C    16.23999977   6.02999973  51.35000229
C    14.85000038   6.14000034  51.39999771
C    24.59000015   8.14000034  50.10000229
H    25.20843315   7.69927692  50.88192749
H    20.12000084   7.88999987  52.50999832
H    19.05999947   5.36999989  48.37999725
H    21.47000122   5.68000031  47.65999603
H    23.71000099   6.83000040  47.97000122
H    22.36000061   8.19000053  51.83000183
H    14.32000065   6.44000006  52.29000092
H    25.06999969   8.10000038  49.12000275
H    24.44999886   9.22000027  50.22999573
S    13.71000099   4.38000011  48.01000214
C    11.03000069   4.28000021  48.81000137
C    12.30000019   4.76000023  49.02000046
C    12.68000031   5.51000023  50.18000031
C    11.75000000   5.69000006  51.18999863
C    10.44999981   5.17000008  51.00999832
C     9.52000046   5.23000002  52.09000015
C     8.23000050   4.76000023  51.97000122
C     7.82000017   4.19000006  50.72999954
C     8.71999931   4.01999998  49.71000290
C    10.03000069   4.57999992  49.77000427
C    14.11000061   5.73999977  50.27999878
C    14.80000019   5.10999966  49.20999908
C    16.18999863   5.12000036  49.15000153
C     6.43000031   3.63000011  50.52000046
H     5.88989830   4.21274090  49.77380753
H    10.78999996   3.76999998  47.87000275
H    12.02999973   6.21999979  52.09999847
H     9.73999977   5.84999990  52.95000076
H     7.59999990   4.98000002  52.81999969
H     8.50000000   3.48000002  48.80000305
H    16.75000000   4.81999969  48.27000046
H     5.92000008   3.51000023  51.47999573
H     6.44000006   2.63000011  50.06000137
