96

S    17.86999893   5.97000027  58.96999741
C    20.56999969   6.10000038  58.34000015
C    19.31999969   5.65999985  57.98999786
C    19.01000023   5.19999981  56.66999817
C    19.96999931   5.09999990  55.68000031
C    21.25999832   5.58000040  56.00999832
C    22.32000160   5.69999981  55.06000137
C    23.46999931   6.40999985  55.31000137
C    23.71999931   6.98000002  56.59000015
C    22.73999977   6.88000011  57.54000092
C    21.53000069   6.15000010  57.29999924
C    17.56999969   5.18000031  56.46999741
C    16.80999947   5.60999966  57.58999634
C    15.42000008   5.59000015  57.69000244
C    25.06000137   7.63000011  56.84999847
H    25.66736221   7.01549292  57.51452255
H    20.69000053   6.63999987  59.27999878
H    19.73999977   4.67000008  54.71000290
H    22.15999985   5.38000011  54.02999878
H    24.33000183   6.28999996  54.65999985
H    22.90999985   7.28999996  58.53000259
H    14.89999962   5.66999960  58.63999939
H    25.61000061   7.85000038  55.91999817
H    24.92000198   8.56999969  57.39999771
S    14.46000004   4.28000021  54.12000275
C    11.71000004   4.09000015  54.81999969
C    12.98999977   4.53999996  55.07999802
C    13.28999996   5.19000006  56.31999969
C    12.30999947   5.26000023  57.29000092
C    10.95999908   4.96000004  56.97000122
C     9.89999962   5.05000019  57.91999817
C     8.64000034   4.53999996  57.68000031
C     8.36000061   3.95000005  56.42000198
C     9.34000015   3.82999992  55.47000122
C    10.65999985   4.26999998  55.75000000
C    14.72000027   5.40000010  56.50000000
C    15.47999954   5.03000021  55.35999680
C    16.86000061   4.86999989  55.31000137
C     6.98999977   3.40000010  56.07999802
H     6.46994543   3.99841881  55.33197403
H    11.36999989   3.55999994  53.93000031
H    12.55000019   5.53999996  58.30999756
H    10.17000008   5.52999973  58.86000061
H     7.86000013   4.67000008  58.41999817
H     9.11999989   3.56999993  54.43000031
H    17.52000046   4.69000006  54.45999908
H     6.39999962   3.42999983  57.00000000
H     7.11999989   2.31999993  55.93999863
S    14.70999908   2.28999996  51.04000092
C    12.10999966   1.50000000  51.83000183
C    13.47000027   1.49000001  52.04000092
C    14.02999973   0.92000002  53.22999954
C    13.21000004   0.32000002  54.16999817
C    11.80999947   0.35999998  53.96999741
C    10.88999939  -0.28000000  54.85000229
C     9.52000046  -0.19000000  54.68999863
C     8.93999958   0.56999999  53.63999939
C     9.81999969   1.00999999  52.67000198
C    11.23000050   1.02999997  52.84000015
C    15.44999981   1.19000006  53.36999893
C    15.93999958   1.94000006  52.27000427
C    17.22999954   2.47000003  52.31999969
C     7.46000004   0.79999995  53.47000122
H     7.01168346   0.21647626  52.66587830
H    11.73999977   1.99000001  50.93000031
H    13.64999962   0.11000000  55.13999939
H    11.36999989  -0.90999997  55.58000183
H     8.93999958  -0.82000005  55.34999847
H     9.42000008   1.36000013  51.72000122
H    17.46999931   3.17000008  51.52999878
H     7.02000046   0.48000002  54.41999817
H     7.28999996   1.86000001  53.27999878
S    18.96999931   0.93000001  55.54000092
C    21.52000046   1.85000002  54.79999924
C    20.17000008   1.79000008  54.55999756
C    19.55999947   2.34999990  53.40000153
C    20.39999962   2.94999981  52.47000122
C    21.80999947   2.93000007  52.61000061
C    22.70000076   3.55999994  51.69000244
C    24.05999947   3.58000016  51.86999893
C    24.61999893   3.12000012  53.09000015
C    23.78000069   2.59000015  54.03999710
C    22.36999893   2.48000002  53.85000229
C    18.12000084   2.15000010  53.36000061
C    17.64999962   1.36000013  54.43999863
C    16.34000015   0.90999997  54.41999817
C    26.11000061   3.05999994  53.31999969
H    26.41699791   3.71682954  54.13389587
H    22.01000023   1.43999994  55.68000031
H    20.00999832   3.38000011  51.55000305
H    22.29999924   4.01999998  50.79000092
H    24.59000015   4.13999987  51.11000061
H    24.20000076   2.00000000  54.84000397
H    16.11999893   0.24000001  55.24000168
H    26.68999863   3.30999994  52.43000031
H    26.38999939   2.04999995  53.68000031
