96

S    17.68000031   6.76999998  58.55999756
C    20.36999893   6.54999971  57.91999817
C    19.05999947   6.40999985  57.50000000
C    18.71999931   5.95000029  56.18999863
C    19.69000053   5.69999981  55.24000168
C    21.04000092   5.86000013  55.63000107
C    22.06999969   5.69999981  54.66999817
C    23.36000061   6.11999989  54.93999863
C    23.71999931   6.56000042  56.24000168
C    22.72999954   6.72999954  57.16999817
C    21.37000084   6.37000036  56.93999863
C    17.28999901   5.73999977  56.04999924
C    16.64999962   6.19000006  57.23999786
C    15.26999950   6.15999985  57.35000229
C    25.02000046   7.27999973  56.51000214
H    25.53824234   6.61267471  57.19862747
H    20.59000015   6.84000015  58.95000076
H    19.56999969   5.21000004  54.27000046
H    21.88999939   5.40999985  53.63999939
H    24.14999962   6.19000006  54.20000076
H    22.84000015   7.21000004  58.13999939
H    14.70999908   6.46000004  58.22999954
H    25.55999947   7.46000004  55.56999969
H    24.86000061   8.19000053  57.09999847
S    14.09999943   4.13999987  54.09000015
C    11.47999954   3.95000005  54.95999908
C    12.72999954   4.48000002  55.15999603
C    13.07000065   5.29999971  56.29000092
C    12.06999969   5.59000015  57.19999695
C    10.75000000   5.13999987  56.97999954
C     9.75000000   5.38999987  57.95999908
C     8.48999977   4.85000038  57.87000275
C     8.22000027   3.94000006  56.81000137
C     9.13999939   3.70000005  55.81999969
C    10.44000053   4.28000021  55.86999893
C    14.48999977   5.59000015  56.32999802
C    15.14000034   5.09999990  55.15999603
C    16.51000023   5.23999977  55.00000000
C     6.86999989   3.25999999  56.79999924
H     6.29403496   3.67953014  55.97515869
H    11.19999981   3.53999996  54.00000000
H    12.34000015   6.06999969  58.13999939
H    10.05000019   6.05000019  58.77999878
H     7.81000042   5.05000019  58.68999863
H     8.97000027   3.07999992  54.93999863
H    17.02000046   5.03999996  54.06000137
H     6.30000019   3.42999983  57.71999741
H     7.13999987   2.21000004  56.63999939
S    14.04999924   2.00000000  51.22000122
C    11.54999924   1.28000009  52.02999878
C    12.89999962   1.19000006  52.29000092
C    13.48000050   0.67000002  53.48999786
C    12.57999992   0.19000000  54.41999817
C    11.18999958   0.27000001  54.20999908
C    10.31000042  -0.14000000  55.26000214
C     8.93999958  -0.09999999  55.17000198
C     8.42000008   0.55000001  54.02000046
C     9.22000027   1.03999996  53.02000046
C    10.62999916   0.90000004  53.04999924
C    14.89999962   1.00999999  53.54999924
C    15.31999969   1.76999998  52.43000031
C    16.59000015   2.32999992  52.30999756
C     6.94000006   0.78000003  53.81999969
H     6.44919586  -0.00955433  53.25095367
H    11.21999931   1.75999999  51.11000061
H    13.00000000  -0.16000001  55.37000275
H    10.71000004  -0.64000005  56.13999939
H     8.36999989  -0.67000002  55.90000153
H     8.78000069   1.50999999  52.14000320
H    16.80999947   2.75000000  51.33999634
H     6.51000023   1.10000002  54.78000259
H     6.77999973   1.63000000  53.15000153
S    18.44000053   0.97999996  55.58000183
C    20.95999908   1.51999998  54.61999893
C    19.61000061   1.64000010  54.40999985
C    19.00000000   2.23000002  53.26000214
C    19.79999924   2.89000010  52.35000229
C    21.21000099   2.86000013  52.50999832
C    22.01000023   3.50000000  51.52999878
C    23.36999893   3.58999991  51.70000076
C    23.92999840   2.92000008  52.81999969
C    23.19000053   2.23000002  53.75000000
C    21.77000046   2.16999984  53.64999771
C    17.54999924   2.05999994  53.29000092
C    17.13000107   1.34000003  54.43999863
C    15.81999969   0.88999999  54.59000015
C    25.43000031   2.86000013  52.98999786
H    25.84201622   2.83158517  53.99872589
H    21.45999908   1.10000002  55.48999786
H    19.36000061   3.35000014  51.46999741
H    21.52000046   3.88999987  50.63999939
H    23.92999840   4.05999994  50.90999985
H    23.71000099   1.69000006  54.54000092
H    15.55999947   0.39000002  55.52000046
H    25.89999962   3.67000008  52.42000198
H    25.75000000   1.97000003  52.44999695
