96

S    17.48999977   6.32000017  58.70999908
C    20.15999985   6.57000017  57.91999817
C    18.89000130   6.12999964  57.63000107
C    18.54999924   5.65999985  56.31999969
C    19.59000015   5.52999973  55.41999817
C    20.90999985   5.95000029  55.72999954
C    21.91999817   5.98000002  54.73999786
C    23.19000053   6.40999985  55.04000092
C    23.51000023   6.91999960  56.32999802
C    22.56999969   6.89000034  57.32999802
C    21.25999832   6.39999962  57.04999924
C    17.11000061   5.53999996  56.18999863
C    16.40999985   5.93999958  57.36000061
C    15.03000069   6.01000023  57.43000031
C    24.90999985   7.40000010  56.65000153
H    25.33889198   6.72807074  57.39341354
H    20.48000145   7.03999996  58.83999634
H    19.25000000   5.42000008  54.38999939
H    21.75000000   5.65000010  53.70999908
H    23.94000053   6.38000011  54.25000000
H    22.80999947   7.13999987  58.36000061
H    14.55000019   6.40999985  58.31999969
H    25.58000183   7.49000025  55.79000092
H    24.87999916   8.46000004  56.93000031
S    13.80000019   4.28000021  54.03999710
C    11.14999962   4.25000000  54.86999893
C    12.43000031   4.67999983  55.10000229
C    12.84000015   5.26999998  56.33999634
C    11.89000034   5.40999985  57.34000397
C    10.52999973   5.09000015  57.11999893
C     9.52000046   5.28999996  58.09999847
C     8.25000000   4.81999969  57.88000107
C     7.88000011   4.39000034  56.56999969
C     8.80000019   4.19000006  55.56999969
C    10.15999985   4.53000021  55.84999847
C    14.27999973   5.50000000  56.36000061
C    14.93999958   4.88999987  55.26000214
C    16.31999969   4.99000025  55.18000031
C     6.50000000   3.88999987  56.22000122
H     6.00814819   4.42462111  55.40737534
H    10.98999977   3.51000023  54.09999847
H    12.18000031   5.75000000  58.33000183
H     9.68999958   5.88999987  59.00000000
H     7.57000017   4.76999998  58.73000336
H     8.64999962   3.58999991  54.68000031
H    16.75000000   4.63000011  54.25000000
H     5.75999975   3.93000007  57.04000092
H     6.60000038   2.84000015  55.93999863
S    14.35999966   2.56999993  50.86999893
C    11.75000000   1.81999993  51.70000076
C    13.12000084   1.75000000  51.84000015
C    13.63999939   1.02999997  52.97000122
C    12.76999950   0.51999998  53.90999603
C    11.36999989   0.46999997  53.69999695
C    10.46000004  -0.11000000  54.61999893
C     9.10000038   0.02000000  54.45999908
C     8.56999969   0.75999999  53.36999893
C     9.42000008   1.26999998  52.42000198
C    10.82999992   1.22000003  52.58999634
C    15.05000019   1.38000000  53.11000061
C    15.57999992   2.23000002  52.11000061
C    16.90999985   2.63000011  52.01000214
C     7.09999990   1.10000002  53.29000092
H     6.59366369   0.30127275  52.74800491
H    11.46000004   2.48000002  50.89000320
H    13.09000015   0.02000000  54.80999756
H    10.84000015  -0.64999998  55.47999954
H     8.38999939  -0.25999999  55.22999573
H     8.96000004   1.94999993  51.70000076
H    17.28999901   3.17999983  51.14999771
H     6.76000023   1.13000000  54.34000015
H     6.93000031   2.03999996  52.75000000
S    18.38999939   1.08999991  55.34999847
C    21.04999924   1.57000005  54.69999695
C    19.72999954   1.65999997  54.34000015
C    19.22000122   2.30999994  53.16999817
C    20.13999939   3.05999994  52.45999908
C    21.53000069   2.94000006  52.65999603
C    22.46000099   3.70000005  51.88999939
C    23.80000114   3.60000014  52.15999985
C    24.27999878   2.71000004  53.15999985
C    23.36999893   2.06999993  53.96999741
C    21.96000099   2.20000005  53.81000137
C    17.77000046   2.20000005  53.02999878
C    17.20999908   1.41000009  54.06000137
C    15.92000008   0.90000004  54.08000183
C    25.75000000   2.77999997  53.48999786
H    25.94893265   3.71783066  54.00864792
H    21.45999908   1.07000005  55.58000183
H    19.73999977   3.78999996  51.76000214
H    22.10000038   4.34999990  51.09000397
H    24.54999924   4.17000008  51.62000275
H    23.71999931   1.49000001  54.81999969
H    15.47999954   0.25000000  54.84000397
H    26.32999802   2.56999993  52.58999634
H    26.00000000   1.94000006  54.15000153
