96

S    17.82999992   6.58999968  58.61999893
C    20.51000214   6.67000008  57.95000076
C    19.22000122   6.44000006  57.52999878
C    18.90999985   5.79999971  56.27999878
C    19.92000008   5.56999969  55.37000275
C    21.22999954   6.01000023  55.65999985
C    22.23999977   5.98999977  54.65999985
C    23.52999878   6.34000015  54.99000168
C    23.90999985   6.71999979  56.31000137
C    22.89999962   6.81999969  57.22999954
C    21.54000092   6.50000000  56.97999954
C    17.47999954   5.55999994  56.16000366
C    16.77999878   5.95000029  57.32999802
C    15.40999985   6.10000038  57.42000198
C    25.29000092   7.23000002  56.68000031
H    25.83061981   6.53288555  57.32020569
H    20.76000023   7.13999987  58.88999939
H    19.68000031   5.23000002  54.36999893
H    21.97000122   5.65000010  53.66000366
H    24.25000000   6.42000008  54.19000244
H    23.02999878   7.23999977  58.22999954
H    14.85999966   6.19000006  58.34999847
H    25.82999992   7.39000034  55.73999786
H    25.12000084   8.14000034  57.27000427
S    14.30999947   4.67999983  53.82999802
C    11.69999981   4.30000019  54.65000153
C    12.92000008   4.86000013  54.92000198
C    13.27000046   5.40000010  56.19999695
C    12.32999992   5.32000017  57.22000122
C    11.00000000   4.94999981  56.93000031
C     9.94999981   4.99000025  57.90000153
C     8.69000053   4.51000023  57.67000198
C     8.43999958   3.91999984  56.39999771
C     9.39000034   3.84999990  55.40999985
C    10.69000053   4.36999989  55.65000153
C    14.68000031   5.73999977  56.27999878
C    15.36999893   5.27999973  55.13000107
C    16.75000000   5.18000031  55.02999878
C     7.03999996   3.40000010  56.18999863
H     6.51427889   3.96834707  55.42272949
H    11.49000072   3.86999989  53.67000198
H    12.63000011   5.50000000  58.25000000
H    10.15999985   5.63000011  58.75999832
H     7.88999987   4.78999996  58.36000061
H     9.19999981   3.44000006  54.41999817
H    17.28999901   5.00000000  54.09999847
H     6.58999968   3.28000021  57.18999863
H     7.17999983   2.36000013  55.90000153
S    14.30999947   2.84000015  50.90000153
C    11.77000046   1.69000006  51.62000275
C    13.14000034   1.81999993  51.73999786
C    13.78999901   1.23000002  52.88000107
C    13.07000065   0.46999997  53.77999878
C    11.65999985   0.37000000  53.67000198
C    10.88999939  -0.08000001  54.78000259
C     9.52000046   0.03000000  54.86000061
C     8.89000034   0.56000000  53.69999695
C     9.56999969   1.14999998  52.65999603
C    10.98000050   0.99000001  52.56999969
C    15.19999981   1.54999995  52.97999954
C    15.62000084   2.51999998  52.04000092
C    16.95000076   2.93000007  51.95999908
C     7.37999964   0.69999999  53.68000031
H     6.96140432   0.28140435  52.76476669
H    11.19999981   2.40999985  51.03000259
H    13.57999992   0.22000000  54.71000290
H    11.39000034  -0.19000000  55.72999954
H     8.98999977  -0.16000001  55.79000092
H     9.03999996   1.74000001  51.91999817
H    17.25000000   3.48000002  51.06999969
H     6.91999960   0.28000000  54.58000183
H     7.23000002   1.76999998  53.82999802
S    18.70000076   1.14999998  55.12000275
C    21.19999886   1.95999992  54.25000000
C    19.84000015   1.97000003  54.03999710
C    19.20999908   2.64999986  52.95000076
C    20.07999802   3.17000008  52.00000000
C    21.47000122   3.19000006  52.23999786
C    22.40999985   3.70000005  51.30000305
C    23.72999954   3.95000005  51.59000015
C    24.27999878   3.42999983  52.78999710
C    23.52000046   2.59000015  53.57999802
C    22.11999893   2.57999992  53.36999893
C    17.77000046   2.46000004  52.98999786
C    17.35999870   1.64000010  54.06999969
C    16.05999947   1.14999998  54.02000046
C    25.76000023   3.60000014  53.01000214
H    26.01633263   3.43623114  54.05669785
H    21.67000008   1.36000013  55.02999878
H    19.61000061   3.51999998  51.09000397
H    21.94000053   4.15999985  50.43000031
H    24.34999847   4.51000023  50.89000320
H    24.04000092   2.13000011  54.41999817
H    15.77000046   0.50999999  54.85000229
H    26.11000061   4.61999989  52.77999878
H    26.34000015   2.93000007  52.36000061
