96

S    18.23999977   6.05999994  58.96999741
C    20.86000061   6.61000013  57.97999954
C    19.59000015   6.09000015  57.83000183
C    19.22999954   5.59000015  56.53999710
C    20.15999985   5.33999968  55.54999924
C    21.48999977   5.78000021  55.72000122
C    22.50000000   5.50000000  54.75000000
C    23.77000046   5.97000027  54.99000168
C    24.20000076   6.53999996  56.22000122
C    23.19999886   6.71999979  57.15000153
C    21.80999947   6.44000006  56.95000076
C    17.79000092   5.35000038  56.45999908
C    17.10000038   5.66999960  57.65999603
C    15.72000027   5.59999990  57.81000137
C    25.62000084   6.91999960  56.53999710
H    26.06105042   6.24419880  57.27270889
H    21.17000198   6.98000002  58.95999908
H    20.00999832   4.76999998  54.62999725
H    22.26000023   4.98000002  53.81999969
H    24.51999855   5.69000006  54.26000214
H    23.45999908   7.23000002  58.06999969
H    15.27999973   5.69000006  58.80000305
H    26.19999886   6.98000002  55.61000061
H    25.55999947   7.92999983  56.97999954
S    14.59000015   4.50000000  54.22999954
C    11.90000057   4.18000031  54.94999695
C    13.17999935   4.53999996  55.30000305
C    13.52000046   5.09000015  56.58000183
C    12.51999950   5.26000023  57.51999664
C    11.19999981   4.86000013  57.19999695
C    10.19999981   4.84000015  58.20999908
C     9.07999992   4.05000019  58.08000183
C     8.71000004   3.54999995  56.81000137
C     9.59000015   3.68999982  55.76000214
C    10.86999989   4.28999996  55.91999817
C    14.96999931   5.25000000  56.68000031
C    15.69000053   5.13000011  55.47000122
C    17.06999969   5.17000008  55.27999878
C     7.30999994   2.98000002  56.70000076
H     6.86984015   3.49825311  55.84807587
H    11.79999924   3.55999994  54.06000137
H    12.71999931   5.55999994  58.54999924
H    10.52000046   5.25000000  59.16999817
H     8.38000011   4.02999973  58.90999603
H     9.22999954   3.49000001  54.75999832
H    17.40999985   5.03000021  54.26000214
H     6.80000019   3.25999999  57.63000107
H     7.42999983   1.89999998  56.51000214
S    14.67000008   2.27999997  51.07999802
C    12.05999947   1.65000010  52.01000214
C    13.43000031   1.56000006  52.11999893
C    14.04000092   0.99000001  53.27999878
C    13.21000004   0.34000003  54.16999817
C    11.78999996   0.43000001  54.09999847
C    10.90000057  -0.17999999  55.02999878
C     9.55000019  -0.23000000  54.78000259
C     9.00000000   0.41999999  53.63999939
C     9.77999973   1.13000000  52.77000046
C    11.18999958   1.10000002  52.98999786
C    15.44999981   1.31999993  53.43999863
C    15.93999958   1.94999993  52.27000427
C    17.26000023   2.38999987  52.22999954
C     7.49000025   0.54000002  53.57999802
H     6.99258041  -0.36246175  53.22470093
H    11.69000053   2.06999993  51.07999802
H    13.63999939  -0.37000000  54.86999893
H    11.26999950  -0.75000000  55.87999725
H     8.82999992  -0.69000000  55.45000076
H     9.30000019   1.67999995  51.97000122
H    17.61000061   2.96000004  51.38000107
H     7.09000015   0.86000001  54.54999924
H     7.35000038   1.38999999  52.90000153
S    18.93000031   0.97999996  55.61000061
C    21.54000092   1.50999999  54.66999817
C    20.17000008   1.63000000  54.52000046
C    19.55000114   2.25000000  53.39000320
C    20.36999893   2.82000017  52.42000198
C    21.77999878   2.75999999  52.54000092
C    22.60999870   3.30999994  51.52000046
C    23.94000053   3.50000000  51.79000092
C    24.50000000   2.96000004  52.97999954
C    23.75999832   2.27999997  53.92000198
C    22.34999847   2.16000009  53.72000122
C    18.12000084   2.03999996  53.29000092
C    17.64999962   1.36999989  54.43999863
C    16.28000069   1.13999999  54.55999756
C    25.97999954   3.09999990  53.23999786
H    26.32877159   2.50922346  54.08701706
H    21.91999817   1.11000001  55.61000061
H    19.95000076   3.22000003  51.50000000
H    22.06999969   3.68000007  50.65000153
H    24.59000015   4.07000017  51.11999893
H    24.23000145   1.87000012  54.79999924
H    15.98000050   0.63000000  55.47000122
H    26.04999924   4.19000006  53.36000061
H    26.63000107   2.87999988  52.38999939
