96

S    18.05999947   6.02999973  58.68000031
C    20.73999786   6.17000008  57.97999954
C    19.47999954   5.72000027  57.65999603
C    19.11000061   5.28999996  56.33999634
C    20.17000008   5.23000002  55.45000076
C    21.50000000   5.63000011  55.70999908
C    22.56000137   5.56999969  54.75999832
C    23.81999969   5.96000004  55.15999603
C    24.09000015   6.60000038  56.39999771
C    23.08000183   6.63999987  57.32999802
C    21.78999901   6.11000013  57.02999878
C    17.67000008   5.26000023  56.11999893
C    17.01000023   5.58000040  57.32999802
C    15.62000084   5.47999954  57.44999695
C    25.51000214   6.91999960  56.81000137
H    25.80907059   6.29337788  57.65024185
H    20.92000008   6.51999998  58.99000168
H    19.93999863   4.81999969  54.47000122
H    22.36000061   5.19000006  53.75999832
H    24.63000107   5.63000011  54.52000046
H    23.22000122   7.02000046  58.34000015
H    15.11999989   5.88999987  58.31999969
H    26.11999893   6.83000040  55.90000153
H    25.48999977   7.96999979  57.11999893
S    14.40000057   4.55999994  53.77999878
C    11.73999977   4.30999994  54.69999695
C    13.02999973   4.75000000  54.88999939
C    13.40999985   5.19000006  56.19999695
C    12.43999958   5.40999985  57.15000153
C    11.07999992   5.09000015  56.90999985
C    10.03000069   5.26000023  57.85999680
C     8.73000050   4.92999983  57.56999969
C     8.38999939   4.19000006  56.40999603
C     9.40999985   3.91999984  55.52000046
C    10.72999954   4.44000006  55.68000031
C    14.85999966   5.15999985  56.31999969
C    15.53999996   4.86999989  55.10000229
C    16.92000008   4.84000015  55.00999832
C     6.98999977   3.65000010  56.22000122
H     6.45600557   4.11991549  55.39408875
H    11.54000092   3.68000007  53.82999802
H    12.65999985   5.66999960  58.18999863
H    10.26000023   5.64000034  58.85000229
H     7.92999983   5.17000008  58.27000046
H     9.23999977   3.45000005  54.55999756
H    17.38000107   4.34999990  54.15999985
H     6.39999962   3.86999989  57.11999893
H     7.05999947   2.56000018  56.06999969
S    18.67000008   6.51999998  52.63000107
C    21.35999870   6.57999992  51.86999893
C    20.06000137   6.26999950  51.56000137
C    19.67000008   5.84000015  50.25000000
C    20.65999985   5.61999989  49.31000137
C    22.01999855   5.84999990  49.64000320
C    23.08000183   5.69999981  48.69999695
C    24.37999916   6.01999998  48.99000168
C    24.72999954   6.58999968  50.25000000
C    23.71999931   6.81999969  51.16000366
C    22.39999962   6.35999966  50.93000031
C    18.22999954   5.64000034  50.15999603
C    17.54999924   6.05999994  51.33999634
C    16.17000008   6.25999975  51.37000275
C    26.15999985   6.91999960  50.61999893
H    26.57345009   6.34259558  51.44689941
H    21.54999924   7.17000008  52.76000214
H    20.38999939   5.18000031  48.36000061
H    22.72000122   5.35000038  47.72999573
H    25.15000153   5.88000011  48.23999786
H    23.88999939   7.20000029  52.15999985
H    15.62999916   6.40999985  52.29999924
H    26.80000114   6.98999977  49.72999954
H    26.11999893   7.95000029  51.00000000
S    14.92000008   4.78999996  47.90000153
C    12.30000019   4.51000023  48.81000137
C    13.57999992   4.97000027  49.03999710
C    13.94000053   5.61999989  50.26000214
C    12.93000031   5.79999971  51.18999863
C    11.59000015   5.36999989  51.04999924
C    10.51000023   5.68000031  51.91999817
C     9.22999954   5.19999981  51.76000214
C     9.00000000   4.42000008  50.59999847
C     9.96999931   4.28999996  49.61999893
C    11.31000042   4.75000000  49.79000092
C    15.36999893   5.88000011  50.27999878
C    16.04999924   5.36000013  49.13999939
C    17.42000008   5.13999987  49.13999939
C     7.67000008   3.73000002  50.40999985
H     6.99279737   4.20047760  49.69715500
H    12.13000107   3.96000004  47.88999939
H    13.12000084   6.46000004  52.02999878
H    10.69000053   6.25999975  52.81999969
H     8.46000004   5.72000027  52.32999802
H     9.80000019   3.88000011  48.62999725
H    17.87999916   4.69999981  48.25000000
H     7.16000032   3.81000018  51.38000107
H     7.81000042   2.66999984  50.20000076
