96

S    17.18000031   6.48000002  58.68999863
C    19.85999870   6.80999994  57.88000107
C    18.61999893   6.23000050  57.69000244
C    18.34000015   5.55999994  56.45999908
C    19.29999924   5.29999971  55.50000000
C    20.55000114   5.92999983  55.65000153
C    21.55999947   5.80999947  54.65000153
C    22.73999977   6.50000000  54.82999802
C    23.02000046   7.26000023  55.98999786
C    22.09000015   7.27999973  57.01000214
C    20.81000137   6.70000029  56.83000183
C    16.93000031   5.21000004  56.38000107
C    16.15999985   5.71000004  57.45999908
C    14.78000069   5.86000013  57.45999908
C    24.38999939   7.86999989  56.20999908
H    24.94281197   7.16126633  56.82659912
H    20.13999939   7.44999981  58.70999908
H    19.11999893   4.65000010  54.64000320
H    21.28999901   5.42999983  53.66000366
H    23.59000015   6.37000036  54.18000031
H    22.27000046   7.90999985  57.88000107
H    14.23999977   6.48000002  58.16999817
H    24.90999985   8.10999966  55.27000046
H    24.40000153   8.80999947  56.77000046
S    13.80000019   3.67000008  54.27999878
C    11.09000015   3.65000010  55.08999634
C    12.38999939   4.05000019  55.28999710
C    12.71999931   4.96000004  56.33999634
C    11.71000004   5.42999983  57.15000153
C    10.42000008   4.85000038  57.09999847
C     9.44999981   5.00000000  58.13000107
C     8.17000008   4.51999998  58.04999924
C     7.82999992   3.76999998  56.88999939
C     8.73999977   3.48000002  55.90000153
C    10.06999969   3.97000027  56.02000427
C    14.17000008   5.14999962  56.42000198
C    14.89999962   4.48999977  55.40999985
C    16.28999901   4.56999969  55.31000137
C     6.44000006   3.17999983  56.77000046
H     5.83626080   3.64168286  55.98868942
H    10.73999977   3.02999997  54.27000046
H    11.89000034   6.11999989  57.97999954
H     9.85000038   5.46000004  59.03999710
H     7.40999985   4.55999994  58.81999969
H     8.40999985   2.94000006  55.01999664
H    16.84999847   4.35999966  54.40000153
H     5.98999977   3.17000008  57.77000046
H     6.71000004   2.14000010  56.56999969
S    17.20999908   6.67999983  52.52999878
C    19.85999870   6.91999960  51.69000244
C    18.59000015   6.46000004  51.44000244
C    18.19000053   5.78000021  50.24000168
C    19.19000053   5.59000015  49.29999924
C    20.51000214   6.05999994  49.50000000
C    21.56999969   5.73999977  48.60000229
C    22.79000092   6.34000015  48.74000168
C    23.13999939   7.03000021  49.93000031
C    22.15999985   7.28999996  50.86000061
C    20.82999992   6.84000015  50.65999985
C    16.75000000   5.58000040  50.20000076
C    16.05999947   5.98999977  51.37000275
C    14.68000031   5.97000027  51.51000214
C    24.56999969   7.50000000  50.06000137
H    25.04674911   7.07306004  50.94234467
H    20.17000008   7.31999969  52.64999771
H    19.11000061   4.92999983  48.43999863
H    21.32999802   5.14999962  47.71999741
H    23.52999878   6.15000010  47.95999908
H    22.23999977   7.90000010  51.76000214
H    14.22000027   6.17999983  52.47000122
H    25.12000084   7.31999969  49.12000275
H    24.53000069   8.57999992  50.20999908
S    13.42000008   4.55000019  48.04999924
C    10.77999973   4.25000000  48.81999969
C    12.03999996   4.73000002  49.13000107
C    12.44999981   5.15999985  50.44000244
C    11.49000072   5.13000011  51.43000031
C    10.17000008   4.69000006  51.20999908
C     9.11999989   4.69000006  52.16999817
C     7.90999985   4.11000013  51.88000107
C     7.59999990   3.53999996  50.61999893
C     8.57999992   3.61999989  49.65000153
C     9.86999989   4.15999985  49.89999771
C    13.86000061   5.51000023  50.47000122
C    14.55000019   5.17000008  49.27000046
C    15.93000031   5.23999977  49.10999680
C     6.37000036   2.72000027  50.31000137
H     5.72132587   3.21898031  49.59004211
H    10.53999996   3.86999989  47.84000015
H    11.80999947   5.32000017  52.45999908
H     9.38000011   5.12000036  53.13999939
H     7.13000011   4.11000013  52.63999939
H     8.39999962   3.16000009  48.68000031
H    16.35000038   4.88999987  48.16999817
H     5.95000029   2.53999996  51.31000137
H     6.61999989   1.71000004  49.93999863
