96

S    18.43000031   6.17999983  58.96999741
C    21.09000015   6.69000053  58.13999939
C    19.85000038   6.12999964  57.90999985
C    19.56999969   5.58000040  56.62000275
C    20.48999977   5.59000015  55.59999847
C    21.78999901   6.09000015  55.86000061
C    22.81999969   6.12999964  54.87999725
C    24.09000015   6.51999998  55.26000214
C    24.40000153   7.04999971  56.53999710
C    23.43000031   7.00999975  57.50999832
C    22.11999893   6.60000038  57.16999817
C    18.12999916   5.46999979  56.40999603
C    17.39999962   5.72000027  57.60000229
C    16.02000046   5.86000013  57.63000107
C    25.81000137   7.46999979  56.90000153
H    26.37009048   6.76102591  57.50971985
H    21.24000168   7.30000019  59.02999878
H    20.29000092   5.36999989  54.54999924
H    22.50999832   5.69000006  53.94000244
H    24.79000092   6.38000011  54.43999863
H    23.55999947   7.40999985  58.52000427
H    15.53999996   6.01000023  58.59000397
H    26.38000107   7.75000000  56.00999832
H    25.72000122   8.30999947  57.60000229
S    14.96000099   5.01999950  53.92000198
C    12.25999928   4.59999990  54.56999969
C    13.52000046   4.98000002  54.94999695
C    13.89999962   5.40999985  56.26999664
C    12.88000011   5.50000000  57.18999863
C    11.56999969   5.07999992  56.83000183
C    10.51000023   5.07999992  57.77000046
C     9.22999954   4.71000004  57.43000031
C     8.90999985   4.09000015  56.18999863
C     9.90999985   4.09000015  55.24000168
C    11.21000099   4.59000015  55.52000046
C    15.34000015   5.58000040  56.44000244
C    16.07999992   5.33999968  55.26000214
C    17.46000099   5.13000011  55.22999573
C     7.50000000   3.60000014  55.98999786
H     6.85060120   4.26367092  55.41910172
H    12.10999966   4.30000019  53.53000259
H    13.09999943   5.78999996  58.20999908
H    10.64000034   5.40999985  58.80000305
H     8.53999996   4.80999994  58.26000214
H     9.67000008   3.71000004  54.26000214
H    18.01000023   4.82999992  54.34999847
H     7.07999992   3.37000012  56.97999954
H     7.71000004   2.64999986  55.47000122
S    14.72000027   2.54999995  50.98999786
C    12.13000107   1.80000007  51.70000076
C    13.47000027   1.79000008  52.00000000
C    13.99000072   1.23000002  53.20999908
C    13.21000004   0.63000000  54.19000244
C    11.82000065   0.64999998  53.92000198
C    10.86999989   0.06000000  54.79999924
C     9.51000023   0.12000000  54.61000061
C     9.01000023   0.85000002  53.50000000
C     9.89999962   1.35000002  52.56999969
C    11.31000042   1.24000001  52.70999908
C    15.39000034   1.58999991  53.36000061
C    15.93999958   2.26999998  52.23999786
C    17.28000069   2.63000011  52.14000320
C     7.53999996   1.19000006  53.34000015
H     7.14161539   0.80584341  52.40095139
H    11.72999954   2.22000003  50.77999878
H    13.56999969   0.37000000  55.18000031
H    11.26999950  -0.46999997  55.65999985
H     8.78999996  -0.39000002  55.24000168
H     9.59999943   2.09000015  51.84000015
H    17.67000008   3.12999988  51.25999832
H     6.91999960   0.85000002  54.18000031
H     7.49000025   2.27999997  53.20999908
S    18.73999977   1.26999998  55.58000183
C    21.40000153   1.95999992  54.94999695
C    20.07999802   1.86000001  54.56999969
C    19.61000061   2.33999991  53.30999756
C    20.52999878   2.79000020  52.37999725
C    21.90999985   2.79000020  52.70000076
C    22.79000092   3.54999995  51.88999939
C    24.09000015   3.75000000  52.29000092
C    24.59000015   3.12000012  53.46000290
C    23.75999832   2.38999987  54.27999878
C    22.36999893   2.38000011  54.00000000
C    18.15999985   2.30999994  53.18999863
C    17.54999924   1.79000008  54.36000061
C    16.25000000   1.31999993  54.43000031
C    26.07999992   3.09999990  53.74000168
H    26.30073547   2.85790157  54.77959824
H    21.77999878   1.67999995  55.93000031
H    20.22000122   3.30999994  51.46999741
H    22.34000015   4.09999990  51.05999756
H    24.64999962   4.32999992  51.56000137
H    24.17000008   1.88999999  55.15999603
H    15.98999977   0.67000002  55.26000214
H    26.42999840   4.11999989  53.59000397
H    26.57999992   2.36000013  53.09999847
