96

S    17.28000069   6.71999979  58.30999756
C    19.82999992   7.17999983  57.50999832
C    18.68999863   6.44000006  57.27000427
C    18.38000107   5.80999947  56.03000259
C    19.31999969   5.89999962  55.01999664
C    20.53999901   6.57000017  55.25000000
C    21.63999939   6.28999996  54.38999939
C    22.93999863   6.58999968  54.68999863
C    23.25000000   7.27999973  55.89000320
C    22.20999908   7.50999975  56.77000046
C    20.86000061   7.11999989  56.53999710
C    16.94000053   5.59000015  55.98999786
C    16.20000076   5.91000032  57.15999985
C    14.80999947   5.86999989  57.22999954
C    24.67000008   7.73000002  56.11000061
H    25.05444336   7.23164749  56.99991608
H    19.96999931   7.57000017  58.52000427
H    19.27999878   5.18000031  54.20000076
H    21.54999924   5.71000004  53.47000122
H    23.71999931   6.25000000  54.01000214
H    22.40999985   7.95000029  57.74000168
H    14.29999924   6.17000008  58.13000107
H    25.35000038   7.55999994  55.27000046
H    24.64999962   8.82999992  56.13999939
S    13.76999950   4.72000027  53.57999802
C    11.06999969   4.32000017  54.45999908
C    12.35000038   4.77999973  54.65000153
C    12.64000034   5.36999989  55.91999817
C    11.64999962   5.49000025  56.88000107
C    10.27999973   5.17000008  56.68000031
C     9.26000023   5.26000023  57.65999603
C     8.03999996   4.65999985  57.44999695
C     7.83999968   3.95000005  56.24000168
C     8.78000069   3.94000006  55.24000168
C    10.03000069   4.61000013  55.38000107
C    14.06999969   5.53999996  56.09000397
C    14.80999947   5.28999996  54.89999771
C    16.20000076   5.33999968  54.82999802
C     6.54999971   3.19000006  56.00999832
H     5.87518740   3.75115991  55.36360168
H    10.82999992   3.73000002  53.57999802
H    11.95000076   5.77000046  57.88999939
H     9.40999985   5.65000010  58.66000366
H     7.26999998   4.57999992  58.20999908
H     8.63000011   3.35000014  54.34000015
H    16.63999939   5.19999981  53.85000229
H     6.01000023   2.94999981  56.93000031
H     6.71999979   2.25999999  55.45000076
S    17.38999939   7.11000013  52.41000366
C    20.06999969   7.30000019  51.65000153
C    18.84000015   6.72999954  51.45999908
C    18.47999954   6.05000019  50.25000000
C    19.47000122   5.80999947  49.31999969
C    20.79000092   6.24000025  49.58000183
C    21.83000183   5.82999992  48.68999863
C    23.13999939   6.19999981  48.89999771
C    23.39999962   7.20000029  49.86999893
C    22.44999886   7.55999994  50.79999924
C    21.11999893   7.05999947  50.72000122
C    17.04000092   5.89999962  50.07999802
C    16.31999969   6.48999977  51.13999939
C    14.93000031   6.58999968  51.10000229
C    24.82999992   7.69000006  50.02999878
H    25.33524513   7.07801247  50.77719116
H    20.36000061   7.92000008  52.50000000
H    19.22999954   5.18000031  48.47000122
H    21.44000053   5.07000017  48.02000046
H    23.92999840   5.65999985  48.40000153
H    22.63000107   8.36000061  51.50000000
H    14.42999935   7.09000015  51.93000031
H    25.29999924   7.62000036  49.05000305
H    24.84999847   8.76000023  50.27000046
S    13.80000019   4.63999987  47.83000183
C    11.18999958   4.32999992  48.68999863
C    12.42000008   4.88999987  48.92000198
C    12.77999973   5.65000010  50.07999802
C    11.75000000   5.91000032  50.97000122
C    10.44000053   5.38999987  50.79999924
C     9.39999962   5.68000031  51.72000122
C     8.10999966   5.23000002  51.51000214
C     7.82000017   4.38000011  50.40999985
C     8.85999966   4.03999996  49.58000183
C    10.19999981   4.50000000  49.69999695
C    14.21000004   5.92000008  50.11000061
C    14.92000008   5.32999992  49.02999878
C    16.31000137   5.35000038  49.02000046
C     6.51999998   3.61999989  50.35999680
H     5.93725824   3.96822381  49.50720596
H    10.98999977   3.61000013  47.90000153
H    12.02000046   6.44000006  51.86999893
H     9.72999954   6.25999975  52.56999969
H     7.31999969   5.40999985  52.22999954
H     8.61999989   3.30999994  48.81000137
H    16.86000061   4.76000023  48.29999924
H     5.93999958   3.71000004  51.29000092
H     6.72999954   2.53999996  50.34999847
