96

S    17.61000061   6.10000038  58.93000031
C    20.20999908   6.57000017  58.08000183
C    18.96999931   6.06999969  57.78999710
C    18.63000107   5.53999996  56.50000000
C    19.54000092   5.53999996  55.47000122
C    20.82999992   6.05000019  55.76000214
C    21.73000145   6.25999975  54.68000031
C    22.95000076   6.80999994  55.00000000
C    23.34000015   7.31999969  56.25999832
C    22.46999931   7.09000015  57.30999756
C    21.21999931   6.44999981  57.09000015
C    17.18000031   5.40999985  56.40999603
C    16.48999977   5.72000027  57.61000061
C    15.10000038   5.75999975  57.71999741
C    24.76000023   7.77999973  56.47999573
H    25.29283714   7.03402996  57.06966782
H    20.36000061   7.07999992  59.02999878
H    19.26000023   5.25000000  54.45999908
H    21.42999840   6.12999964  53.63999939
H    23.68999863   6.78999996  54.20000076
H    22.65000153   7.44000006  58.31999969
H    14.53999996   6.06999969  58.60000229
H    25.32999992   7.92999983  55.56000137
H    24.64999962   8.76999950  56.93000031
S    13.92000008   4.63000011  54.06000137
C    11.32999992   4.13999987  54.97000122
C    12.56999969   4.67999983  55.21999741
C    12.96000004   5.15999985  56.51000214
C    11.94000053   5.46000004  57.39999771
C    10.62999916   4.96000004  57.21000290
C     9.61999989   5.01999950  58.20000076
C     8.34999943   4.50000000  58.06999969
C     8.14999962   3.63999987  56.95999908
C     9.06999969   3.63000011  55.93999863
C    10.34999943   4.26000023  55.97999954
C    14.39000034   5.38999987  56.56999969
C    15.05000019   5.07999992  55.34999847
C    16.44000053   5.09000015  55.27000046
C     6.80999994   2.94999981  56.79000092
H     6.16942501   3.60481024  56.19924927
H    11.13999939   3.61999989  54.02999878
H    12.13999939   5.92999983  58.36000061
H     9.84000015   5.47999954  59.15999985
H     7.57000017   4.69000006  58.80000305
H     8.80000019   3.15000010  55.00000000
H    17.01000023   4.73000002  54.41999817
H     6.32999992   2.82999992  57.76000214
H     6.86999989   2.05999994  56.14999771
S    13.63999939   2.45000005  51.18999863
C    11.02000046   1.75000000  51.86000061
C    12.35999966   1.57000005  52.06999969
C    12.93000031   0.90999997  53.20000076
C    12.01000023   0.32999998  54.05000305
C    10.62000084   0.32000002  53.82999802
C     9.71000004  -0.14000000  54.82999802
C     8.36999989   0.17000002  54.77000427
C     7.86000013   0.88000000  53.64999771
C     8.71000004   1.33000004  52.65999603
C    10.11000061   1.08999991  52.71999741
C    14.37999916   1.05999994  53.29000092
C    14.89999962   1.95999992  52.32999802
C    16.20000076   2.46000004  52.36000061
C     6.38000011   0.88000000  53.36999893
H     6.09650040   0.12872612  52.63290024
H    10.53999996   2.39999986  51.12999725
H    12.30999947  -0.11000000  55.00000000
H    10.06999969  -0.73000002  55.66999817
H     7.65999985  -0.28000000  55.45000076
H     8.23999977   1.74000001  51.77000046
H    16.46999931   3.07000017  51.51000214
H     5.82999992   0.67000002  54.29999924
H     6.03999996   1.85000002  52.97999954
S    17.70000076   0.79000002  55.65000153
C    20.32999992   1.62000000  55.06000137
C    18.97999954   1.65000010  54.77000427
C    18.43000031   2.31999993  53.62999725
C    19.22000122   2.99000001  52.71999741
C    20.61000061   2.89000010  52.95000076
C    21.47000122   3.45000005  51.95999908
C    22.84000015   3.42000008  52.11000061
C    23.38000107   2.68000007  53.18000031
C    22.59000015   2.07999992  54.13999939
C    21.17000198   2.16000009  54.06000137
C    17.01000023   2.06999993  53.43999863
C    16.46999931   1.25000000  54.45999908
C    15.21999931   0.65999997  54.34000015
C    24.87999916   2.63000011  53.37999725
H    25.19963264   3.55338573  53.86300278
H    20.69000053   1.38999999  56.05999756
H    18.81000137   3.40000010  51.79999924
H    21.00000000   3.97000027  51.12999725
H    23.45999908   3.91999984  51.37000275
H    22.93999863   1.75000000  55.11000061
H    14.72000027   0.14000000  55.14999771
H    25.34000015   2.59000015  52.38999939
H    25.19000053   1.81999993  54.03999710
