96

S    17.78000069   6.32999992  58.70999908
C    20.48999977   6.38999987  57.94000244
C    19.19000053   6.05999994  57.65999603
C    18.81999969   5.40000010  56.44000244
C    19.85999870   5.07999992  55.58000183
C    21.14000130   5.65999985  55.70000076
C    22.23999977   5.40999985  54.82999802
C    23.54999924   5.78000021  55.02999878
C    23.85000038   6.43000031  56.25999832
C    22.86000061   6.58999968  57.19999695
C    21.52000046   6.19000006  56.97999954
C    17.38000107   5.32999992  56.27999878
C    16.68000031   5.86000013  57.39999771
C    15.29000092   5.80999947  57.39999771
C    25.29000092   6.76999998  56.56999969
H    25.74285316   6.09779644  57.29881287
H    20.81000137   6.93000031  58.82999802
H    19.64999962   4.48000002  54.69999695
H    22.09000015   4.69000006  54.02999878
H    24.30999947   5.40999985  54.34999847
H    23.02000046   7.09999990  58.15000153
H    14.81999969   6.21999979  58.27999878
H    25.84000015   6.94000006  55.63999939
H    25.22999954   7.78999996  56.97999954
S    14.32000065   3.84999990  54.09000015
C    11.56999969   3.74000025  54.78000259
C    12.82999992   4.23999977  54.97000122
C    13.15999985   5.00000000  56.13999939
C    12.18999958   5.32000017  57.08000183
C    10.88999939   4.81999969  56.86999893
C     9.84000015   5.00000000  57.81999969
C     8.55000019   4.63999987  57.51999664
C     8.26000023   3.76999998  56.43000031
C     9.25000000   3.47000003  55.52000046
C    10.55999947   4.00999975  55.73999786
C    14.57999992   5.14999962  56.38999939
C    15.34999943   4.55999994  55.34000015
C    16.72999954   4.69000006  55.22999573
C     6.94999981   3.01999998  56.40999603
H     6.22860527   3.50569129  55.75288391
H    11.36000061   3.22000003  53.85000229
H    12.50000000   5.61999989  58.08000183
H    10.06999969   5.36999989  58.81999969
H     7.76000023   4.65999985  58.27000046
H     9.06000042   2.75000000  54.73999786
H    17.22999954   4.44999981  54.29000092
H     6.63000011   3.16000009  57.44999695
H     7.04999971   1.98000002  56.07999802
S    18.09999847   6.37000036  52.65999603
C    20.79999924   6.35999966  51.79999924
C    19.47999954   6.05999994  51.59000015
C    18.98999977   5.56999969  50.33000183
C    19.90999985   5.46000004  49.31000137
C    21.28999901   5.68000031  49.52999878
C    22.27999878   5.50000000  48.52000427
C    23.61000061   5.64000034  48.82999802
C    24.01000023   6.12999964  50.10000229
C    23.13999939   6.44000006  51.11999893
C    21.78999901   6.11999989  50.80999756
C    17.53999901   5.56999969  50.25000000
C    16.88999939   5.84999990  51.46999741
C    15.51000023   5.95000029  51.60999680
C    25.43000031   6.61000013  50.33000183
H    25.87264633   6.06740141  51.16531754
H    21.17000198   6.67999983  52.77000046
H    19.50000000   5.09000015  48.37999725
H    21.91999817   5.33999968  47.50999832
H    24.43000031   5.44000053  48.13999939
H    23.34000015   6.69000053  52.15999985
H    15.06999969   6.26999950  52.55000305
H    26.02000046   6.61000013  49.40000153
H    25.36999893   7.63999987  50.68999863
S    14.17000008   4.76000023  48.09999847
C    11.46000004   4.72000027  48.92000198
C    12.79000092   4.94000006  49.20000076
C    13.22000027   5.40999985  50.47999954
C    12.32999992   5.52999973  51.53999710
C    10.98999977   5.13000011  51.33999634
C     9.96000004   5.35000038  52.30999756
C     8.64999962   5.09999990  51.95999908
C     8.25000000   4.69999981  50.65999985
C     9.21000004   4.44000006  49.71000290
C    10.54999924   4.79999971  50.00999832
C    14.65000057   5.71000004  50.52999878
C    15.29999924   5.42000008  49.29999924
C    16.68000031   5.32999992  49.15999985
C     6.83000040   4.23000002  50.45000076
H     6.43260527   4.40031195  49.44941711
H    11.06999969   4.36999989  47.97000122
H    12.64999962   6.11000013  52.39999771
H    10.26000023   5.86999989  53.20999908
H     7.86000013   5.17000008  52.70000076
H     8.98999977   4.19000006  48.68000031
H    17.05999947   4.81999969  48.27999878
H     6.28000021   4.94999981  51.07999802
H     6.67000008   3.23000002  50.84999847
