96

S    17.46000099   6.02999973  59.02999878
C    20.13000107   6.63999987  58.36999893
C    18.93000031   6.05000019  58.02999878
C    18.73999977   5.58000040  56.70000076
C    19.84000015   5.49000025  55.84999847
C    21.14999962   5.78999996  56.30000305
C    22.25000000   5.65000010  55.40999985
C    23.43000031   6.26999950  55.75000000
C    23.57000160   6.96000004  56.98999786
C    22.50000000   7.13999987  57.83000183
C    21.27000046   6.48000002  57.56000137
C    17.32999992   5.28999996  56.50000000
C    16.50000000   5.55000019  57.62000275
C    15.11000061   5.55999994  57.63000107
C    24.87999916   7.60999966  57.36999893
H    25.46973419   6.88526630  57.93131256
H    20.22999954   7.22000027  59.29000092
H    19.75000000   5.26000023  54.79999924
H    22.06000137   5.31000042  54.40000153
H    24.23999977   6.14000034  55.04000092
H    22.56999969   7.65999985  58.77999878
H    14.48999977   5.88000011  58.46000290
H    25.38999939   7.86000013  56.43000031
H    24.65999985   8.53999996  57.90000153
S    14.23999977   4.48000002  53.89999771
C    11.46000004   4.30000019  54.45999908
C    12.75000000   4.59000015  54.85000229
C    13.10999966   4.99000025  56.18000031
C    12.11999989   4.98000002  57.14000320
C    10.77999973   4.67999983  56.77999878
C     9.75000000   4.88000011  57.74000168
C     8.46000004   4.48000002  57.45999908
C     8.22000027   3.86999989  56.19999695
C     9.13999939   3.77999997  55.17000198
C    10.44000053   4.28999996  55.44000244
C    14.52999973   5.22000027  56.39999771
C    15.29999924   5.01999950  55.22999573
C    16.69000053   5.01999950  55.28999710
C     6.80000019   3.44000006  55.90000153
H     6.29284859   3.96858096  55.09284592
H    11.30000019   3.98000002  53.43000031
H    12.27000046   5.32000017  58.15999985
H    10.05000019   5.27999973  58.69999695
H     7.65999985   4.51999998  58.20000076
H     8.93999958   3.37000012  54.19000244
H    17.20999908   4.77999973  54.36000061
H     6.21999979   3.68999982  56.79999924
H     6.69000053   2.36000013  55.76000214
S    18.26000023   6.84000015  52.85999680
C    20.98999977   7.04999971  52.19999695
C    19.70000076   6.74000025  51.84000015
C    19.38999939   6.17999983  50.54999924
C    20.43999863   5.92000008  49.69999695
C    21.73000145   6.47000027  49.94999695
C    22.73999977   6.51000023  48.94000244
C    24.03000069   6.90999985  49.19000244
C    24.34999847   7.36000013  50.50000000
C    23.36000061   7.48000050  51.45000076
C    22.03000069   7.02000046  51.24000168
C    17.97999954   5.89999962  50.34999847
C    17.26000023   6.37000036  51.47999573
C    15.86999989   6.50000000  51.42000198
C    25.72999954   7.88000011  50.83000183
H    26.13668823   7.33061600  51.67905045
H    21.22999954   7.46999979  53.18000031
H    20.20999908   5.64000034  48.67000198
H    22.62000084   6.11000013  47.94000244
H    24.82000160   6.83000040  48.44999695
H    23.47999954   7.92000008  52.43999863
H    15.26000023   6.84000015  52.25000000
H    26.40000153   7.75000000  49.98000336
H    25.58000183   8.89999962  51.23000336
S    14.82999992   5.05000019  47.84999847
C    12.09000015   4.88999987  48.59000397
C    13.40000057   5.15999985  48.89999771
C    13.73999977   5.68000031  50.19000244
C    12.72999954   5.98000002  51.09000397
C    11.39000034   5.60999966  50.79999924
C    10.39999962   5.80999947  51.79999924
C     9.11999989   5.40000010  51.51000214
C     8.73999977   4.84000015  50.26000214
C     9.68000031   4.75000000  49.26000214
C    11.02000046   5.18000031  49.47000122
C    15.15999985   5.96000004  50.34000015
C    15.88000107   5.52999973  49.20000076
C    17.27000046   5.47999954  49.20999908
C     7.35000038   4.26000023  50.19000244
H     6.67518997   4.82115793  49.54360199
H    12.00000000   4.26000023  47.70000076
H    12.93000031   6.34000015  52.09000015
H    10.70000076   6.07999992  52.81000137
H     8.34000015   5.29999971  52.25999832
H     9.44999981   4.17000008  48.36999893
H    17.84000015   5.42999983  48.29000092
H     6.88000011   4.09999990  51.17000198
H     7.63000011   3.30000019  49.72999954
