96

S    17.67000008   6.67000008  58.95999908
C    20.38999939   6.71999979  58.30999756
C    19.11000061   6.32000017  57.98999786
C    18.71999931   5.75999975  56.73999786
C    19.70999908   5.64000034  55.77000046
C    21.02000046   6.10000038  56.03000259
C    22.04000092   6.06999969  55.04000092
C    23.36000061   6.32000017  55.33000183
C    23.68999863   6.69000053  56.65999985
C    22.76000023   6.89000034  57.64999771
C    21.40999985   6.60000038  57.32999802
C    17.28999901   5.51000023  56.60999680
C    16.57999992   6.07999992  57.69000244
C    15.19000053   5.95000029  57.76000214
C    25.09000015   7.17000008  56.95000076
H    25.58733559   6.46662617  57.61785126
H    20.62999916   7.13000011  59.29000092
H    19.42000008   5.14999962  54.85000229
H    21.81999969   5.52999973  54.12000275
H    24.11000061   6.19000006  54.54999924
H    22.98999977   7.32999992  58.61999893
H    14.70000076   6.30999994  58.66000366
H    25.62999916   7.28999996  56.00000000
H    25.05000114   8.09000015  57.54000092
S    14.15999985   4.39000034  54.26000214
C    11.47999954   4.23000002  54.99000168
C    12.71999931   4.76999998  55.22999573
C    13.07000065   5.40999985  56.45999908
C    12.07999992   5.65999985  57.38999939
C    10.77999973   5.14999962  57.15999985
C     9.70000076   5.36999989  58.06000137
C     8.45000076   4.81999969  57.88999939
C     8.18000031   4.05999994  56.72000122
C     9.17000008   3.88000011  55.77999878
C    10.47000027   4.42000008  55.96000290
C    14.52000046   5.47999954  56.63000107
C    15.25000000   4.88000011  55.56999969
C    16.62999916   4.76000023  55.63000107
C     6.80999994   3.49000001  56.43000031
H     6.26195288   3.91704988  55.59013367
H    11.26000023   3.51000023  54.20000076
H    12.31999969   6.19999981  58.29999924
H     9.94000053   5.91000032  58.96999741
H     7.62000036   5.03000021  58.55999756
H     9.04999924   3.31999993  54.86000061
H    17.11000061   4.28000021  54.78000259
H     6.21000004   3.72000003  57.32999802
H     6.81999969   2.39999986  56.38999939
S    17.88999939   6.77999973  52.87000275
C    20.58000183   6.88000011  52.09999847
C    19.29000092   6.50000000  51.81999969
C    18.89000130   5.98999977  50.54000092
C    19.78000069   6.03999996  49.47999954
C    21.07000160   6.58999968  49.68000031
C    22.04000092   6.39999962  48.66000366
C    23.28000069   6.94999981  48.88999939
C    23.67000198   7.44000006  50.17000198
C    22.78000069   7.48000050  51.22000122
C    21.45999908   7.00000000  51.00000000
C    17.43999863   5.82000017  50.45999908
C    16.75000000   6.19999981  51.63999939
C    15.36999893   6.12999964  51.72000122
C    25.10000038   7.88999987  50.34999847
H    25.53446579   7.23474264  51.10496902
H    20.82999992   7.17999983  53.11999893
H    19.44000053   5.73999977  48.48999786
H    21.77999878   5.91000032  47.72999573
H    24.03000069   6.71000004  48.15000153
H    23.00000000   7.81000042  52.22999954
H    14.82999992   6.39999962  52.63000107
H    25.72999954   8.01000023  49.45999908
H    24.99000168   8.92000008  50.72000122
S    14.19000053   5.07999992  48.09000015
C    11.52999973   4.72000027  48.92000198
C    12.82999992   5.03999996  49.22999954
C    13.17000008   5.61999989  50.48999786
C    12.17000008   5.69999981  51.44000244
C    10.85000038   5.23000002  51.20999908
C     9.85999966   5.32000017  52.22999954
C     8.56999969   4.92000008  51.95000076
C     8.22000027   4.51999998  50.63999939
C     9.15000057   4.42000008  49.62999725
C    10.50000000   4.78999996  49.88999939
C    14.60999966   5.75000000  50.61000061
C    15.31000042   5.46999979  49.40999985
C    16.69999886   5.42999983  49.34000015
C     6.80999994   4.02999973  50.37000275
H     6.37446547   4.26561642  49.39897537
H    11.35000038   4.32000017  47.91999817
H    12.46000099   6.09000015  52.42000198
H    10.14000034   5.63000011  53.23999786
H     7.82000017   4.88000011  52.72999573
H     8.92000008   4.11000013  48.61000061
H    17.27000046   5.32000017  48.41999817
H     6.23000050   4.65999985  51.05999756
H     6.77999973   2.99000001  50.70999908
