96

S    18.20999908   5.78000021  58.76999664
C    20.79999924   6.39999962  57.85999680
C    19.52999878   5.93999958  57.58999634
C    19.10000038   5.68000031  56.25000000
C    20.00999832   5.84999990  55.21999741
C    21.32999802   6.30999994  55.40999985
C    22.26000023   6.50000000  54.34999847
C    23.57999992   6.71000004  54.66999817
C    23.97000122   7.14999962  55.96000290
C    23.06999969   6.93000031  56.97999954
C    21.70000076   6.57000017  56.77999878
C    17.64999962   5.59999990  56.25000000
C    16.97999954   5.63000011  57.50000000
C    15.59000015   5.63000011  57.58999634
C    25.35000038   7.65999985  56.29000092
H    25.71288490   7.19749975  57.20788193
H    21.12999916   6.44999981  58.88999939
H    19.82999992   5.58000040  54.18000031
H    22.11999893   6.21999979  53.30999756
H    24.31999969   6.72999954  53.87000275
H    23.36000061   6.98000002  58.02000046
H    15.14000034   5.73999977  58.57999802
H    26.09999847   7.40000010  55.52999878
H    25.45000076   8.75000000  56.32999802
S    14.35999966   4.56999969  54.02999878
C    11.69999981   4.19000006  54.84000397
C    12.97000027   4.61999989  55.13000107
C    13.32999992   5.10999966  56.43000031
C    12.38000011   5.12000036  57.43000031
C    11.05000019   4.69999981  57.15999985
C    10.00000000   4.84000015  58.09999847
C     8.78000069   4.26000023  57.84000015
C     8.56999969   3.63999987  56.58000183
C     9.38000011   3.82999992  55.48999786
C    10.69000053   4.28999996  55.83000183
C    14.75999928   5.32999992  56.51000214
C    15.47000027   5.14999962  55.28999710
C    16.84999847   5.26000023  55.14999771
C     7.30000019   2.82999992  56.43000031
H     6.41969252   3.43834257  56.22244644
H    11.46000004   3.68000007  53.89999771
H    12.64000034   5.58000040  58.37999725
H    10.24000072   5.22000027  59.09999847
H     7.94000053   4.30000019  58.52000427
H     9.21000004   3.38999987  54.51000214
H    17.36999893   5.00000000  54.23999786
H     6.97000027   2.21000004  57.28000259
H     7.59999990   2.10999990  55.65000153
S    18.42000008   6.90000010  52.41000366
C    20.94000053   7.31999969  51.38000107
C    19.72999954   6.69000053  51.23000336
C    19.30999947   6.07999992  50.00999832
C    20.25000000   5.98000002  49.00000000
C    21.54000092   6.56000042  49.12000275
C    22.53000069   6.51000023  48.09999847
C    23.75000000   7.13000011  48.22000122
C    23.95000076   7.90999985  49.38999939
C    23.12999916   7.94000053  50.48999786
C    21.90000153   7.25000000  50.33000183
C    17.86000061   5.92000008  50.00000000
C    17.23999977   6.35999966  51.18999863
C    15.85999966   6.40999985  51.30000305
C    25.34000015   8.50000000  49.52999878
H    25.86503983   7.91110325  50.28208542
H    21.11000061   7.81000042  52.32999802
H    20.06999969   5.46999979  48.06000137
H    22.32999992   6.01999998  47.15000153
H    24.46000099   7.05999947  47.39999771
H    23.38000107   8.55000019  51.36000061
H    15.47999954   6.76000023  52.25999832
H    25.95000076   8.51000023  48.61000061
H    25.20999908   9.55000019  49.78000259
S    14.57999992   4.92999983  47.84999847
C    11.87999916   4.86999989  48.67000198
C    13.20000076   5.13000011  48.95000076
C    13.63000011   5.68000031  50.20000076
C    12.64000034   6.05999994  51.07999802
C    11.33999920   5.51999998  50.94999695
C    10.44999981   5.45000029  52.05999756
C     9.22000027   4.84000015  52.01000214
C     8.78999996   4.34999990  50.73999786
C     9.61000061   4.36999989  49.62999725
C    10.92000008   4.90999985  49.72000122
C    15.06999969   5.92000008  50.26000214
C    15.72999954   5.53999996  49.06999969
C    17.11000061   5.38999987  48.94000244
C     7.42999983   3.70000005  50.66999817
H     6.99669027   3.80655146  49.67551804
H    11.56999969   4.61000013  47.65999603
H    12.88000011   6.65999985  51.95000076
H    10.90000057   5.73000002  53.01000214
H     8.52999973   4.82999992  52.84999847
H     9.17000008   3.86000013  48.77999878
H    17.60000038   4.97000027  48.08000183
H     6.72999954   4.11000013  51.40999603
H     7.51999950   2.64999986  50.97999954
