96

S    17.29999924   6.39999962  58.81000137
C    20.02000046   6.61999989  57.94000244
C    18.70000076   6.28999996  57.72999573
C    18.31999969   5.75999975  56.45999908
C    19.26000023   5.59999990  55.45999908
C    20.59000015   6.05000019  55.59000015
C    21.54999924   5.95000029  54.54999924
C    22.81999969   6.46000004  54.68000031
C    23.19000053   7.03000021  55.93000031
C    22.27999878   7.09999990  56.95999908
C    20.96999931   6.54999971  56.88999939
C    16.87999916   5.56999969  56.31000137
C    16.20000076   5.93999958  57.50000000
C    14.81999969   5.75000000  57.60000229
C    24.64999962   7.40999985  56.04999924
H    25.13234711   6.82125330  56.83026886
H    20.42000008   7.11999989  58.81000137
H    18.97999954   5.12000036  54.52000046
H    21.24000168   5.46999979  53.62999725
H    23.54999924   6.38999987  53.87000275
H    22.55000114   7.46999979  57.95000076
H    14.29999924   6.01999998  58.50999832
H    25.15000153   7.17000008  55.11000061
H    24.61999893   8.48999977  56.24000168
S    13.68000031   4.25000000  54.09999847
C    11.03000069   3.94000006  54.98000336
C    12.28999996   4.44000006  55.19000244
C    12.67000008   5.09000015  56.39999771
C    11.76000023   5.32999992  57.42000198
C    10.44999981   4.84000015  57.21000290
C     9.50000000   4.88999987  58.27000046
C     8.22000027   4.44000006  58.04999924
C     7.79999971   3.72000003  56.90000153
C     8.76999950   3.55999994  55.93999863
C    10.06999969   4.11999989  56.02000427
C    14.11999893   5.25000000  56.49000168
C    14.80999947   4.92999983  55.28999710
C    16.18999863   5.05999994  55.20999908
C     6.44999981   3.02999997  56.88000107
H     5.80049133   3.49393463  56.13770676
H    10.72999954   3.38000011  54.09999847
H    12.10999966   5.58000040  58.40999985
H     9.89000034   5.36999989  59.15999985
H     7.50999975   4.38000011  58.87000275
H     8.64000034   2.93000007  55.06999969
H    16.80999947   4.67000008  54.40999985
H     5.92000008   3.17999983  57.83000183
H     6.56000042   1.94999993  56.72000122
S    17.18000031   7.07000017  52.74000168
C    19.89999962   7.18999958  51.91999817
C    18.60000038   6.80999994  51.70000076
C    18.15000153   6.15000010  50.50000000
C    19.04999924   5.98999977  49.47000122
C    20.36999893   6.48999977  49.59000015
C    21.35999870   6.30000019  48.57999802
C    22.60999870   6.84000015  48.79000092
C    22.98000145   7.50999975  49.99000168
C    22.09000015   7.63999987  51.03000259
C    20.79999924   7.07000017  50.83000183
C    16.72999954   5.88999987  50.41999817
C    16.06999969   6.25999975  51.62000275
C    14.68999958   6.23000050  51.69000244
C    24.33000183   8.17000008  50.13999939
H    24.92802238   7.62893200  50.87329102
H    20.17999840   7.82000017  52.76000214
H    18.81000137   5.65000010  48.46000290
H    21.14999962   5.82999992  47.63000107
H    23.28000069   6.72999954  47.95000076
H    22.29999924   8.18000031  51.95999908
H    14.21000004   6.51000023  52.62000275
H    24.79000092   8.19000053  49.15000153
H    24.04999924   9.15999985  50.51000214
S    13.48000050   4.82999992  48.11999893
C    10.88999939   4.32999992  49.03999710
C    12.13999939   4.85000038  49.27000046
C    12.50000000   5.55999994  50.47000122
C    11.56999969   5.59999990  51.49000168
C    10.24000072   5.19999981  51.23000336
C     9.17000008   5.51999998  52.11000061
C     7.94000053   4.92000008  51.97999954
C     7.59000015   4.21999979  50.79000092
C     8.51000023   4.18000031  49.77000427
C     9.86999989   4.51999998  50.00999832
C    13.93000031   5.78999996  50.59000015
C    14.57999992   5.38000011  49.40000153
C    15.97000027   5.40000010  49.34999847
C     6.23000050   3.58000016  50.63999939
H     5.64020252   4.03478384  49.84412766
H    10.50000000   3.98999977  48.08000183
H    11.75000000   6.01000023  52.48000336
H     9.31999969   5.96000004  53.09000015
H     7.18999958   4.90000010  52.77000046
H     8.30000019   3.68000007  48.82999802
H    16.54999924   5.25000000  48.43999863
H     5.68000031   3.52999973  51.59000015
H     6.63000011   2.61000013  50.34000015
