96

S    16.82999992   6.14000034  58.46000290
C    19.36000061   6.67999983  57.47000122
C    18.15999985   6.02999973  57.29000092
C    17.76000023   5.42999983  56.04999924
C    18.75000000   5.23000002  55.11000061
C    20.07999802   5.68000031  55.27999878
C    21.18000031   5.38999987  54.43999863
C    22.37999916   6.05000019  54.56999969
C    22.62000084   6.98000002  55.61999893
C    21.61999893   7.07999992  56.55000305
C    20.31999969   6.50000000  56.44000244
C    16.29999924   5.38999987  55.97000122
C    15.65999985   5.65000010  57.21000290
C    14.28999996   5.69999981  57.41000366
C    23.94000053   7.69000006  55.86999893
H    24.59358597   7.02220726  56.43122864
H    19.57999992   7.40999985  58.23999786
H    18.56999969   4.67999983  54.19000244
H    21.01000023   4.76000023  53.56999969
H    23.25000000   5.73000002  54.00000000
H    21.84999847   7.67000008  57.43000031
H    13.86000061   5.89999962  58.39000320
H    24.37999916   8.01000023  54.92000198
H    23.84000015   8.56000042  56.52999878
S    12.88000011   4.88000011  53.80000305
C    10.26999950   4.42000008  54.73999786
C    11.56999969   4.80999994  54.99000168
C    12.01000023   5.25000000  56.27999878
C    11.11999989   5.22000027  57.32999802
C     9.78999996   4.79999971  57.11000061
C     8.82999992   4.72000027  58.15999985
C     7.59000015   4.13999987  57.98999786
C     7.17000008   3.63999987  56.72999954
C     8.11999989   3.63000011  55.72999954
C     9.39000034   4.26999998  55.83000183
C    13.45999908   5.45000029  56.31000137
C    14.07999992   5.19000006  55.06000137
C    15.46000004   5.09000015  54.89999771
C     5.75999975   3.12000012  56.56000137
H     5.38374281   3.49625731  55.60870743
H    10.06999969   4.11999989  53.70999908
H    11.44000053   5.40000010  58.36000061
H     9.09000015   5.03000021  59.15999985
H     7.02000046   4.17000008  58.90999603
H     7.96999979   3.12000012  54.78000259
H    15.82999992   4.76000023  53.93000031
H     5.12000036   3.55999994  57.34000397
H     5.73000002   2.02999997  56.56000137
S    17.23999977   6.77999973  52.32999802
C    19.95000076   6.71000004  51.62000275
C    18.64999962   6.38999987  51.31999969
C    18.30999947   5.88999987  50.01999664
C    19.29999924   5.59999990  49.09999847
C    20.59999847   6.11999989  49.29999924
C    21.61999893   5.98999977  48.31999969
C    22.92000008   6.40999985  48.50999832
C    23.13999939   7.09000015  49.72999954
C    22.18000031   7.31999969  50.68999863
C    20.88000107   6.76000023  50.54999924
C    16.87000084   5.73999977  49.89999771
C    16.17000008   6.28000021  51.00999832
C    14.78999996   6.32000017  51.12999725
C    24.57999992   7.49000025  49.99000168
H    25.04184151   6.93579102  50.80710220
H    20.27000046   6.97000027  52.62000275
H    19.19000053   4.90000010  48.27000046
H    21.35000038   5.46999979  47.39999771
H    23.81999969   6.17000008  47.95000076
H    22.39999962   7.76999998  51.65999985
H    14.23999977   6.71999979  51.97999954
H    25.15000153   7.44000006  49.06000137
H    24.61999893   8.55000019  50.27000046
S    13.60999966   4.63000011  47.76000214
C    10.90999985   4.86000013  48.31999969
C    12.20000076   5.07000017  48.75000000
C    12.56000042   5.73000002  49.95999908
C    11.51000023   6.11000013  50.77999878
C    10.21000004   5.61999989  50.54000092
C     9.18000031   5.69000006  51.51000214
C     7.95000029   5.09999990  51.32999802
C     7.63000011   4.50000000  50.07999802
C     8.53999996   4.57999992  49.05000305
C     9.86999989   5.05000019  49.26000214
C    14.01000023   5.86999989  50.06000137
C    14.72000027   5.23999977  49.00000000
C    16.10000038   5.17000008  48.88000107
C     6.30999994   3.78999996  49.92000198
H     5.67833233   4.42166758  49.29542923
H    10.60999966   4.35999966  47.39999771
H    11.71000004   6.58999968  51.73999786
H     9.53999996   6.01999998  52.48000336
H     7.36000013   4.88000011  52.22000122
H     8.32999992   4.07999992  48.11000061
H    16.67000008   4.53000021  48.20999908
H     5.82999992   3.65999985  50.90000153
H     6.48000002   2.79999995  49.47999954
