96

S    17.86000061   6.35999966  58.96999741
C    20.58000183   6.58999968  58.36999893
C    19.34000015   6.12999964  58.01000214
C    18.96999931   5.49000025  56.77999878
C    20.03000069   5.38999987  55.89000320
C    21.34000015   5.88000011  56.11999893
C    22.34000015   5.86000013  55.11000061
C    23.59999847   6.34999990  55.37000275
C    23.92999840   6.80999994  56.66999817
C    22.90999985   7.05999947  57.55000305
C    21.60000038   6.51000023  57.38999939
C    17.53999901   5.36000013  56.56999969
C    16.77999878   5.88999987  57.63999939
C    15.39999962   5.96000004  57.77000046
C    25.34000015   7.14999962  57.08000183
H    25.83730316   6.32589769  57.59151459
H    20.85000038   7.03999996  59.31999969
H    20.06999969   4.78999996  54.98000336
H    22.00000000   5.51000023  54.13999939
H    24.37000084   6.21999979  54.61999893
H    23.05999947   7.36999989  58.57999802
H    14.88999939   6.30000019  58.66000366
H    25.94000053   7.57000017  56.26999664
H    25.38999939   7.92999983  57.84999847
S    14.39000034   4.56999969  54.19000244
C    11.69999981   4.30999994  54.88999939
C    12.94000053   4.82999992  55.17000198
C    13.27999973   5.44000053  56.42000198
C    12.22000027   5.59000015  57.29999924
C    10.88999939   5.13999987  57.08000183
C     9.82999992   5.18000031  58.02000046
C     8.56000042   4.73000002  57.71999741
C     8.32999992   4.36999989  56.37000275
C     9.30999947   4.15000010  55.43000031
C    10.62999916   4.51999998  55.80999756
C    14.72000027   5.53999996  56.62000275
C    15.47000027   5.15999985  55.47000122
C    16.84999847   5.09999990  55.37000275
C     6.93000031   3.96000004  55.98999786
H     6.45338154   4.55043793  55.20748901
H    11.44999981   3.89999986  53.92000198
H    12.48000050   5.95000029  58.29000092
H     9.89000034   5.68000031  58.99000168
H     7.73999977   4.81999969  58.41999817
H     9.06999969   3.61999989  54.50000000
H    17.36999893   4.90999985  54.43999863
H     6.32000017   4.00000000  56.90000153
H     6.90000010   2.93000007  55.61000061
S    18.48999977   7.09000015  52.61000061
C    21.14999962   7.35000038  51.95000076
C    19.89999962   6.94000006  51.53999710
C    19.55000114   6.34999990  50.28999710
C    20.55999947   6.28000021  49.34999847
C    21.84000015   6.80000019  49.61999893
C    22.82999992   6.71999979  48.60000229
C    24.09000015   7.17999983  48.89999771
C    24.38999939   7.78999996  50.13999939
C    23.44000053   7.86999989  51.12999725
C    22.13999939   7.31999969  50.93999863
C    18.12000084   6.11000013  50.18000031
C    17.39999962   6.48000002  51.35000229
C    16.02000046   6.42000008  51.46999741
C    25.73999786   8.40999985  50.44000244
H    26.25818634   7.66466236  51.04336929
H    21.47999954   7.76000023  52.90000153
H    20.52000046   5.82999992  48.36000061
H    22.56999969   6.38999987  47.60000229
H    24.86000061   7.20000029  48.13000107
H    23.77000046   8.28999996  52.06999969
H    15.54999924   6.74000025  52.39999771
H    26.14999962   8.61999989  49.43999863
H    25.53999901   9.39000034  50.87999725
S    14.94999981   5.19000006  47.81000137
C    12.25000000   4.92000008  48.68999863
C    13.55000019   5.35000038  48.88000107
C    13.94000053   5.75999975  50.20000076
C    12.94999981   5.82999992  51.16000366
C    11.61000061   5.42999983  50.93999863
C    10.64000034   5.58000040  51.95999908
C     9.36999989   5.07000017  51.77000046
C     9.04999924   4.42000008  50.54999924
C     9.90999985   4.36999989  49.47999954
C    11.21999931   4.88000011  49.66999817
C    15.38000011   5.98000002  50.31000137
C    16.05999947   5.72000027  49.09000015
C    17.43999863   5.75000000  49.00000000
C     7.67000008   3.86999989  50.26000214
H     7.20969391   4.42944908  49.44561005
H    11.98999977   4.61000013  47.69000244
H    13.17999935   6.15999985  52.16999817
H    10.97000027   6.15999985  52.81999969
H     8.60999966   5.35000038  52.49000168
H     9.65999985   4.07000017  48.47000122
H    17.95999908   5.47999954  48.09000015
H     7.25000000   3.81999993  51.26999664
H     7.76999998   2.80999994  50.00000000
