96

S    17.19000053   5.47999954  58.81999969
C    19.90999985   5.86999989  58.23999786
C    18.65999985   5.47999954  57.81999969
C    18.37000084   5.07000017  56.47999573
C    19.43000031   4.99000025  55.59000015
C    20.71000099   5.45000029  55.97999954
C    21.83000183   5.38999987  55.10000229
C    23.05999947   5.82999992  55.52000046
C    23.32999992   6.25999975  56.84999847
C    22.29000092   6.25999975  57.74000168
C    20.97999954   5.91000032  57.30999756
C    16.95000076   5.00999975  56.19999695
C    16.18999863   5.23999977  57.36999893
C    14.80000019   5.36000013  57.43000031
C    24.61999893   6.90000010  57.29999924
H    25.23252296   6.25186634  57.92676544
H    19.95000076   6.17999983  59.27999878
H    19.38999939   4.80999994  54.52000046
H    21.68000031   4.98000002  54.10999680
H    23.82999802   5.97000027  54.77000427
H    22.36000061   6.70000029  58.74000168
H    14.42000008   5.65999985  58.40000153
H    25.15999985   7.05999947  56.36000061
H    24.48999786   7.81000042  57.90999985
S    13.71000099   4.11000013  53.88999939
C    11.00999928   3.91999984  54.65000153
C    12.28999996   4.35999966  54.92000198
C    12.61000061   4.86999989  56.22000122
C    11.61000061   4.90999985  57.18000031
C    10.25000000   4.67000008  56.88999939
C     9.19000053   4.85000038  57.81999969
C     7.88000011   4.55999994  57.50000000
C     7.63000011   4.01999998  56.20999908
C     8.60999966   3.86999989  55.25000000
C     9.96999931   4.09000015  55.59999847
C    14.04999924   5.05000019  56.29000092
C    14.80999947   4.72000027  55.13999939
C    16.20000076   4.72000027  55.05000305
C     6.25999975   3.48000002  55.86000061
H     5.85340929   3.94365621  54.96121979
H    10.88000107   3.23000002  53.81999969
H    11.95000076   5.15999985  58.18000031
H     9.48999977   5.21000004  58.80000305
H     7.13000011   4.48999977  58.27000046
H     8.30999947   3.52999973  54.26000214
H    16.77000046   4.34999990  54.20000076
H     5.66999960   3.53999996  56.79000092
H     6.42000008   2.43000007  55.59999847
S    14.42999935   1.72999990  51.10000229
C    11.77000046   1.53999996  51.90000153
C    13.09000015   1.28000009  52.18000031
C    13.59000015   0.68000007  53.37999725
C    12.61999989   0.24000001  54.26000214
C    11.23000050   0.38000000  54.01000214
C    10.18000031  -0.07000000  54.86000061
C     8.85000038  -0.03000000  54.52999878
C     8.43999958   0.67000002  53.36999893
C     9.40999985   1.24000001  52.57999802
C    10.80000019   1.00999999  52.78999710
C    15.03000069   0.85000002  53.52000427
C    15.59999943   1.52999997  52.42000198
C    16.87000084   2.07999992  52.32999802
C     6.98000002   0.97000003  53.11999893
H     6.58077240   0.54225588  52.20035172
H    11.44999981   2.09000015  51.02000427
H    12.97000027  -0.09999999  55.22999573
H    10.52000046  -0.34999999  55.86000061
H     8.09000015  -0.32000002  55.25000000
H     9.13999939   1.72000003  51.65000153
H    17.19000053   2.63000011  51.45000076
H     6.35999966   0.56000000  53.93000031
H     6.86999989   2.05999994  53.08000183
S    18.44000053   1.00000000  55.77000046
C    21.05999947   1.72000003  54.92000198
C    19.69000053   1.72999990  54.73999786
C    19.12999916   2.20000005  53.50999832
C    19.96000099   2.69000006  52.52999878
C    21.37000084   2.69000006  52.69000244
C    22.26000023   3.05000019  51.63999939
C    23.61999893   2.86999989  51.75000000
C    24.18000031   2.40999985  52.97000122
C    23.35000038   2.01999998  53.99000168
C    21.94000053   2.20000005  53.92000198
C    17.69000053   1.95999992  53.46000290
C    17.15999985   1.24000001  54.55999756
C    15.88999939   0.68000007  54.61999893
C    25.66999817   2.21000004  53.11999893
H    25.99083328   2.55222392  54.10389328
H    21.52000046   1.13999999  55.70999908
H    19.55999947   2.79999995  51.52999878
H    21.88999939   3.28999996  50.65000153
H    24.31999969   2.96999979  50.91999817
H    23.62999916   1.67999995  54.99000168
H    15.46000004   0.19000000  55.48999786
H    26.14999962   2.72000027  52.27000427
H    25.95999908   1.15999997  53.01000214
