96

S    17.57999992   6.67999983  58.34000015
C    20.29999924   6.57999992  57.81999969
C    19.04000092   6.11999989  57.50999832
C    18.71999931   5.32999992  56.36000061
C    19.72999954   5.13999987  55.44000244
C    21.02000046   5.69999981  55.59000015
C    22.09000015   5.51000023  54.66999817
C    23.36000061   6.01999998  54.80999756
C    23.61000061   6.57999992  56.09000397
C    22.63000107   6.77999973  57.02999878
C    21.31999969   6.23000050  56.90000153
C    17.28999901   5.13000011  56.18000031
C    16.54999924   5.78000021  57.19999695
C    15.15999985   5.75000000  57.15999985
C    25.00999832   7.07000017  56.38000107
H    25.51391602   6.53059721  57.18200684
H    20.55000114   7.22000027  58.66000366
H    19.52999878   4.46000004  54.61000061
H    21.90000153   4.90999985  53.77999878
H    24.18000031   5.92000008  54.10999680
H    22.86000061   7.48000050  57.83000183
H    14.65999985   6.19000006  58.02000046
H    25.69999886   7.05999947  55.52000046
H    24.99000168   8.13000011  56.68000031
S    14.11000061   3.93000007  53.82999802
C    11.43000031   3.73000002  54.62999725
C    12.69000053   4.25000000  54.85000229
C    13.00000000   5.00999975  56.02000427
C    12.05000019   5.23999977  56.98999786
C    10.72000027   4.82999992  56.73999786
C     9.73999977   5.07999992  57.74000168
C     8.47999954   4.53999996  57.61000061
C     8.14000034   3.76999998  56.46999741
C     9.10000038   3.50000000  55.52999878
C    10.43000031   4.00000000  55.59999847
C    14.44000053   5.25000000  56.06999969
C    15.19999981   4.69999981  55.00000000
C    16.56999969   4.55999994  55.12000275
C     6.71999979   3.24000001  56.38999939
H     6.11419821   3.81729341  55.69154739
H    11.09000015   3.14000010  53.79000092
H    12.34000015   5.68000031  57.95000076
H    10.00000000   5.60999966  58.64999771
H     7.73999977   4.74000025  58.37999725
H     8.76999950   2.96999979  54.64000320
H    17.15999985   4.03999996  54.36999893
H     6.30000019   3.28999996  57.39999771
H     6.71999979   2.21000004  56.00999832
S    17.51000023   6.38999987  52.75000000
C    20.13000107   6.76999998  51.81999969
C    18.86999893   6.25000000  51.62000275
C    18.46999931   5.72000027  50.34999847
C    19.38999939   5.66999960  49.33000183
C    20.68000031   6.23000050  49.50000000
C    21.75000000   5.98000002  48.60000229
C    23.03999901   6.37000036  48.87000275
C    23.38000107   7.14999962  50.00999832
C    22.42000198   7.23000002  50.98999786
C    21.09000015   6.77999973  50.77000046
C    17.02000046   5.61999989  50.25000000
C    16.36999893   6.11999989  51.40999603
C    14.98999977   6.05999994  51.52999878
C    24.72999954   7.78999996  50.20000076
H    25.40298462   7.11701488  50.73130035
H    20.35000038   7.20000029  52.78999710
H    19.18000031   5.21000004  48.36000061
H    21.61999893   5.29999971  47.76000214
H    23.87000084   6.21000004  48.18000031
H    22.73999977   7.77999973  51.86999893
H    14.50000000   6.34999990  52.45999908
H    25.10000038   8.03999996  49.20000076
H    24.61000061   8.73000050  50.75000000
S    13.78000069   4.46000004  48.04000092
C    11.14999962   4.25000000  48.99000168
C    12.44999981   4.67000008  49.18000031
C    12.86999893   5.33999968  50.38000107
C    11.92999935   5.60999966  51.36000061
C    10.60999966   5.12000036  51.22000122
C     9.61000061   5.32999992  52.21000290
C     8.34000015   4.82999992  52.02000046
C     7.96000004   4.15000010  50.83000183
C     8.82999992   4.11000013  49.75999832
C    10.19000053   4.44999981  50.01999664
C    14.29999924   5.59000015  50.40000153
C    14.93000031   5.10999966  49.22999954
C    16.31999969   5.13000011  49.15000153
C     6.58999968   3.52999973  50.72000122
H     6.11921072   3.63699746  49.74275589
H    10.88999939   3.77999997  48.06000137
H    12.15000057   6.06999969  52.31999969
H     9.81999969   5.75999975  53.18999863
H     7.60999966   4.94000006  52.81999969
H     8.55000019   3.73000002  48.77999878
H    16.79000092   4.65999985  48.29000092
H     5.96000004   4.07999992  51.44000244
H     6.57999992   2.46000004  50.93000031
