96

S    17.94000053   6.51000023  58.52000427
C    20.55000114   6.94000006  57.65999603
C    19.32999992   6.34999990  57.43000031
C    19.04000092   5.68000031  56.18999863
C    19.97999954   5.51999998  55.19000244
C    21.27000046   6.03999996  55.47000122
C    22.32000160   6.01000023  54.51000214
C    23.59000015   6.47000027  54.78000259
C    23.90999985   7.03000021  56.04999924
C    22.86000061   7.27999973  56.90999985
C    21.54999924   6.80000019  56.65999985
C    17.63000107   5.35000038  56.18000031
C    16.87000084   5.82000017  57.29000092
C    15.50000000   6.05999994  57.29000092
C    25.31999969   7.44000006  56.38999939
H    25.74625969   6.82902718  57.18568420
H    20.72000122   7.57999992  58.52000427
H    19.69000053   5.26000023  54.18000031
H    22.11000061   5.63000011  53.50999832
H    24.41999817   6.30000019  54.10999680
H    23.01000214   7.76000023  57.87000275
H    14.91000080   6.43000031  58.11999893
H    25.98999977   7.40000010  55.52000046
H    25.36000061   8.47000027  56.77000046
S    14.45000076   4.21000004  53.94000244
C    11.79999924   4.09000015  54.86999893
C    13.05999947   4.63999987  54.94999695
C    13.38999939   5.55999994  56.00000000
C    12.42000008   5.88000011  56.91999817
C    11.10000038   5.36999989  56.90999985
C    10.14999962   5.46999979  57.97000122
C     8.89000034   4.94000006  57.81999969
C     8.56000042   4.19999981  56.65999985
C     9.51000023   3.93000007  55.70000076
C    10.81999969   4.46000004  55.83000183
C    14.84000015   5.68000031  56.11000061
C    15.53999996   5.03000021  55.06999969
C    16.90999985   4.78999996  55.12000275
C     7.16000032   3.63999987  56.51000214
H     6.56242371   4.15220833  55.75591660
H    11.64999962   3.38999987  54.05000305
H    12.74000072   6.48000002  57.77000046
H    10.40999985   5.93999958  58.90999603
H     8.17000008   5.01999950  58.62999725
H     9.28999996   3.30999994  54.84000397
H    17.51000023   4.42999983  54.29000092
H     6.65000010   3.71000004  57.48000336
H     7.30000019   2.57999992  56.30000305
S    14.50000000   2.47000003  50.84999847
C    11.87000084   1.85000002  51.65000153
C    13.22999954   1.74000001  51.84000015
C    13.75000000   1.12000000  53.02000046
C    12.84999943   0.62000000  53.95000076
C    11.44999981   0.74000001  53.79000092
C    10.50000000   0.19999999  54.69999695
C     9.13999939   0.24000001  54.47000122
C     8.65999985   1.12000000  53.46000290
C     9.52999973   1.54999995  52.49000168
C    10.93999958   1.31999993  52.56999969
C    15.19999981   1.19999993  53.08000183
C    15.76000023   1.81999993  51.93000031
C    17.10000038   2.17999983  51.86000061
C     7.17000008   1.36000013  53.34000015
H     6.60912752   0.67133397  52.70812988
H    11.59000015   2.47000003  50.79999924
H    13.15000057   0.01000000  54.79000092
H    10.88999939  -0.24000001  55.61000061
H     8.48999977  -0.12000000  55.25000000
H     9.06999969   2.13000011  51.70000076
H    17.53000069   2.75000000  51.04000092
H     6.67000008   1.35000002  54.31999969
H     7.03000021   2.38999987  53.00000000
S    18.54999924   0.83999997  55.33000183
C    21.14999962   1.72999990  54.84000397
C    19.86999893   1.52999997  54.36999893
C    19.37000084   1.98000002  53.11000061
C    20.25000000   2.68000007  52.29999924
C    21.61999893   2.76999998  52.63999939
C    22.57999802   3.38000011  51.77999878
C    23.92999840   3.35000014  52.08000183
C    24.37000084   2.68000007  53.25000000
C    23.46999931   2.24000001  54.19000244
C    22.06999969   2.27999997  53.90999603
C    17.94999886   1.77999997  52.90000153
C    17.36999893   1.21000004  54.06000137
C    16.01000023   0.93999994  54.19000244
C    25.82999992   2.75000000  53.64999771
H    26.12978554   3.70646000  54.07826614
H    21.35999870   1.36999989  55.84000015
H    20.03000069   3.28999996  51.43000031
H    22.32000160   3.76999998  50.79999924
H    24.63000107   3.88999987  51.45999908
H    23.85000038   1.77999997  55.10000229
H    15.57999992   0.59999996  55.13000107
H    26.40000153   2.72000027  52.70999908
H    26.04000092   1.89999998  54.31999969
