96

S    17.46000099   6.53999996  58.64999771
C    20.09000015   7.07999992  57.81999969
C    18.85000038   6.54999971  57.54000092
C    18.50000000   5.92999983  56.30000305
C    19.44000053   5.97000027  55.28999710
C    20.68000031   6.61999989  55.47000122
C    21.71999931   6.48000002  54.50000000
C    22.93000031   7.11000013  54.65999985
C    23.23999786   7.64999962  55.93999863
C    22.36000061   7.59999990  56.98999786
C    21.05999947   7.04999971  56.79000092
C    17.06999969   5.65999985  56.19999695
C    16.35000038   6.01000023  57.36999893
C    14.96999931   5.92999983  57.48000336
C    24.65999985   8.05000019  56.25000000
H    25.03057480   7.41574383  57.05529022
H    20.22999954   7.63999987  58.74000168
H    19.19000053   5.51000023  54.33000183
H    21.44000053   5.97000027  53.59000397
H    23.67000198   7.07999992  53.87000275
H    22.62000084   7.90999985  58.00000000
H    14.50000000   6.05999994  58.44999695
H    25.31999969   7.85000038  55.38999939
H    24.77000046   9.11000061  56.49000168
S    13.78000069   4.72000027  53.89999771
C    11.06999969   4.55000019  54.68999863
C    12.35999966   4.97000027  54.93000031
C    12.77999973   5.51000023  56.18999863
C    11.87000084   5.69000006  57.22000122
C    10.55999947   5.19999981  57.02000046
C     9.55999947   5.32000017  58.02999878
C     8.27999973   4.81999969  57.91999817
C     7.88999987   4.21000004  56.70000076
C     8.78000069   4.23000002  55.65000153
C    10.14000034   4.65000010  55.75000000
C    14.22999954   5.59000015  56.33999634
C    14.93000031   5.19999981  55.17000198
C    16.31999969   5.19000006  55.12000275
C     6.51999998   3.58000016  56.65000153
H     5.91173506   4.09631777  55.90735245
H    10.90999985   4.05999994  53.74000168
H    12.20999908   6.17999983  58.13000107
H     9.82999992   5.82000017  58.95999908
H     7.57999992   4.86000013  58.74000168
H     8.45000076   4.00000000  54.65000153
H    16.80999947   4.82999992  54.22999954
H     6.11000013   3.51999998  57.65999603
H     6.71999979   2.54999995  56.31999969
S    14.02999973   2.69000006  51.12999725
C    11.51999950   1.93000007  51.98999786
C    12.88000011   1.72999990  52.08000183
C    13.38000107   1.03999996  53.22999954
C    12.53000069   0.41000003  54.12000275
C    11.13999939   0.34000003  53.85000229
C    10.22999954  -0.27000001  54.75999832
C     8.88000011  -0.01000000  54.65999985
C     8.36999989   0.73000002  53.56999969
C     9.22000027   1.31999993  52.65999603
C    10.62999916   1.18000007  52.81000137
C    14.78999996   1.35000002  53.36999893
C    15.22999954   2.23000002  52.35000229
C    16.46999931   2.86000013  52.42000198
C     6.89000034   0.71999997  53.26000214
H     6.52099800  -0.29475611  53.11098099
H    11.10000038   2.57999992  51.23000336
H    12.84999943   0.09999999  55.11000061
H    10.60999966  -0.92000002  55.54999924
H     8.28999996  -0.41000003  55.47999954
H     8.89999962   1.92000008  51.81000137
H    16.72999954   3.51999998  51.59999847
H     6.25000000   1.28999996  53.94000244
H     6.84000015   1.22000003  52.29000092
S    18.27000046   1.18000007  55.48999786
C    20.85000038   2.04999995  54.71000290
C    19.47999954   2.13000011  54.59000015
C    18.88000107   2.75000000  53.44999695
C    19.70999908   3.42999983  52.57999802
C    21.11999893   3.30999994  52.61000061
C    22.04999924   3.94000006  51.73999786
C    23.40999985   3.86999989  51.90000153
C    23.92999840   3.17000008  53.02000046
C    23.11000061   2.48000002  53.88000107
C    21.70000076   2.59000015  53.70999908
C    17.45000076   2.48000002  53.34000015
C    16.97999954   1.61000001  54.36000061
C    15.69000053   1.08000004  54.40999985
C    25.38999939   3.28000021  53.40000153
H    25.57502747   4.19090366  53.96931458
H    21.18000031   1.44999993  55.56000137
H    19.34000015   4.00999975  51.73999786
H    21.73000145   4.44000006  50.81999969
H    24.06999969   4.18000031  51.09000397
H    23.40999985   2.06999993  54.84000397
H    15.32999992   0.46999997  55.22999573
H    25.96999931   3.33999991  52.47000122
H    25.72999954   2.40999985  53.96999741
