96

S    17.29999924   6.30999994  58.50000000
C    19.88000107   6.48000002  57.60000229
C    18.60999870   6.03999996  57.34000397
C    18.17000008   5.46999979  56.10000229
C    19.11000061   5.35000038  55.10000229
C    20.42000008   5.86000013  55.25000000
C    21.38000107   5.69000006  54.20999908
C    22.63999939   6.19000006  54.41999817
C    23.01000214   6.83000040  55.63000107
C    22.10000038   6.94999981  56.65000153
C    20.81999969   6.32000017  56.55000305
C    16.70999908   5.38999987  56.09000397
C    16.10000038   5.75999975  57.30999756
C    14.73000050   5.73999977  57.52999878
C    24.44000053   7.30999994  55.79000092
H    24.93218994   6.81067705  56.62458038
H    20.02000046   7.11999989  58.47000122
H    18.88000107   4.84000015  54.16999817
H    21.07999992   5.28999996  53.23999786
H    23.39999962   6.14000034  53.63999939
H    22.39999962   7.50999975  57.52999878
H    14.19999981   6.01000023  58.43000031
H    25.00999832   7.17999983  54.86000061
H    24.41999817   8.38000011  56.04999924
S    13.25000000   4.55999994  54.06999969
C    10.64000034   4.28000021  55.06000137
C    11.95000076   4.61000013  55.27999878
C    12.46000099   5.07000017  56.53999710
C    11.57999992   5.13999987  57.60000229
C    10.21999931   4.77999973  57.41000366
C     9.22999954   4.94999981  58.41999817
C     7.99000025   4.35999966  58.29999924
C     7.55999994   3.84999990  57.04999924
C     8.38999939   3.84999990  55.96000290
C     9.71000004   4.36999989  56.12999725
C    13.89999962   5.28999996  56.49000168
C    14.50000000   5.01999950  55.22999573
C    15.86999989   5.09999990  55.00000000
C     6.19999981   3.19999981  56.88999939
H     5.63205147   3.60466337  56.05227661
H    10.26999950   3.93000007  54.09000015
H    11.84999943   5.40000010  58.61999893
H     9.48999977   5.44000053  59.34999847
H     7.44999981   4.36999989  59.23999786
H     8.06999969   3.37000012  55.04000092
H    16.31999969   4.99000025  54.02000046
H     5.59999990   3.31999993  57.80000305
H     6.34999990   2.13000011  56.72999954
S    13.22999954   2.30999994  51.04000092
C    10.59999943   1.94000006  51.93999863
C    11.95000076   1.77999997  52.15000153
C    12.48000050   1.28000009  53.37999725
C    11.59000015   0.85000002  54.34999847
C    10.19999981   0.81000000  54.09000015
C     9.23999977   0.22000000  54.95999908
C     7.95000029   0.03000000  54.54000092
C     7.40000010   0.57999998  53.34999847
C     8.31999969   1.18000007  52.51999664
C     9.68999958   1.36999989  52.87000275
C    13.94000053   1.26999998  53.40000153
C    14.47000027   1.89999998  52.23999786
C    15.81999969   2.19000006  52.05999756
C     5.96000004   0.48999998  52.93000031
H     5.68225193  -0.50704432  52.58815384
H    10.29000092   2.23000002  50.93999863
H    12.05999947   0.28000000  55.13999939
H     9.70000076  -0.28000000  55.80999756
H     7.34000015  -0.67000002  55.10000229
H     8.06999969   1.29999995  51.46999741
H    16.18000031   2.77999997  51.23000336
H     5.25000000   0.83999997  53.68999863
H     5.80999947   1.22000003  52.11999893
S    17.22999954   1.19999993  55.61999893
C    19.93000031   1.50999999  54.97000122
C    18.60999870   1.61000001  54.59000015
C    18.12000084   2.03999996  53.31999969
C    19.04999924   2.51999998  52.39999771
C    20.42000008   2.34999990  52.69000244
C    21.31000137   2.72000027  51.65000153
C    22.65000153   2.66000009  51.95999908
C    23.12000084   2.07999992  53.16999817
C    22.27000046   1.70000005  54.19000244
C    20.88000107   1.87000012  53.96999741
C    16.69999886   1.82999992  53.09000015
C    16.13000107   1.22000003  54.22999954
C    14.78999996   0.90999997  54.45000076
C    24.61000061   2.05999994  53.41999817
H    25.01635551   3.00103521  53.79071045
H    20.22000122   1.25999999  55.98999786
H    18.73999977   2.94999981  51.45000076
H    20.88000107   3.21000004  50.77999878
H    23.32999992   3.12999988  51.25999832
H    22.73999977   1.34000003  55.10000229
H    14.32999992   0.69000000  55.40999985
H    25.20999908   1.76999998  52.55000305
H    24.79999924   1.25999999  54.15000153
