96

S    17.81999969   5.98000002  58.97999573
C    20.46999931   6.32999992  57.98999786
C    19.18000031   5.84999990  57.84999847
C    18.73999977   5.36000013  56.58000183
C    19.63999939   5.17000008  55.54999924
C    21.00000000   5.55000019  55.70999908
C    22.00000000   5.23000002  54.75000000
C    23.29999924   5.55000019  55.05000305
C    23.68999863   6.25000000  56.23000336
C    22.73999977   6.46000004  57.21000290
C    21.35999870   6.28000021  56.90000153
C    17.28999901   5.23999977  56.50000000
C    16.64999962   5.68000031  57.68000031
C    15.26999950   5.78999996  57.81999969
C    25.10999870   6.70000029  56.45999908
H    25.61493301   6.20929098  57.29207230
H    20.81000137   6.63000011  58.97999573
H    19.30999947   4.84000015  54.56999969
H    21.67000008   4.88999987  53.76999664
H    24.03000069   5.42999983  54.25000000
H    22.98999977   6.91999960  58.15999985
H    14.73999977   6.21000004  58.67000198
H    25.72000122   6.48000002  55.58000183
H    25.05000114   7.79999971  56.52000046
S    14.01000023   4.44000006  54.33000183
C    11.36999989   4.32999992  55.18000031
C    12.65999985   4.73000002  55.45000076
C    13.00000000   5.32000017  56.70999908
C    12.05000019   5.59000015  57.67000198
C    10.75000000   5.09999990  57.42000198
C     9.77999973   5.09000015  58.47000122
C     8.47000027   4.81999969  58.15999985
C     8.05000019   4.28000021  56.91999817
C     8.98999977   4.28000021  55.90000153
C    10.34999943   4.61999989  56.11999893
C    14.45000076   5.45000029  56.72999954
C    15.13000011   5.05000019  55.56000137
C    16.50000000   4.85000038  55.40999985
C     6.72999954   3.58000016  56.75000000
H     6.20253992   3.97203088  55.88040161
H    11.06999969   3.65999985  54.38000107
H    12.30999947   6.10000038  58.59000397
H    10.01000023   5.59999990  59.40000153
H     7.81000042   4.88999987  59.02000046
H     8.78000069   3.74000025  54.99000168
H    16.92000008   4.57999992  54.45000076
H     6.14000034   3.68000007  57.67000198
H     6.98999977   2.51999998  56.62000275
S    14.45000076   2.49000001  51.25000000
C    11.92000008   1.64000010  51.98999786
C    13.26000023   1.69000006  52.29000092
C    13.81000042   1.21000004  53.52000427
C    12.94999981   0.50000000  54.34999847
C    11.56000042   0.54000002  54.10999680
C    10.60999966   0.05000000  55.06000137
C     9.26999950   0.09000000  54.75999832
C     8.73000050   0.79000002  53.64999771
C     9.61999989   1.25999999  52.70999908
C    11.00999928   0.99000001  52.85999680
C    15.24000072   1.44999993  53.57999802
C    15.72000027   2.10999990  52.42000198
C    17.07999992   2.30999994  52.16999817
C     7.23999977   1.01999998  53.46000290
H     6.73618126   0.20395631  52.94198608
H    11.61000061   2.22000003  51.11999893
H    13.28999996  -0.07000000  55.20999908
H    10.93000031  -0.29999998  56.04000092
H     8.53999996  -0.43000001  55.37000275
H     9.27999973   1.86000001  51.86999893
H    17.32999992   2.69000006  51.18999863
H     6.86999989   1.13999999  54.47999954
H     7.26000023   1.94000006  52.85999680
S    18.84000015   0.87000000  55.45999908
C    21.38000107   1.50000000  54.47999954
C    20.03000069   1.39999998  54.25000000
C    19.40999985   2.01999998  53.11999893
C    20.23999977   2.50000000  52.11999893
C    21.64999962   2.48000002  52.21000290
C    22.44999886   3.12000012  51.23000336
C    23.72999954   3.45000005  51.62000275
C    24.34000015   3.00000000  52.81999969
C    23.59999847   2.19000006  53.64999771
C    22.20999908   1.97000003  53.43999863
C    17.95999908   1.99000001  53.20999908
C    17.50000000   1.36999989  54.40000153
C    16.15999985   1.02999997  54.54999924
C    25.76999855   3.32999992  53.20999908
H    26.02671051   2.88788462  54.17266846
H    21.76000214   1.29999995  55.47999954
H    19.73999977   2.94999981  51.25999832
H    21.94999886   3.58999991  50.38999939
H    24.30000114   4.09000015  50.96000290
H    24.02000046   1.93000007  54.61999893
H    15.77000046   0.39999998  55.34000015
H    25.92000008   4.42000008  53.13000107
H    26.45000076   3.00999999  52.42000198
