96

S    18.13999939   6.65000010  58.73000336
C    20.72000122   6.98000002  57.75000000
C    19.45000076   6.50000000  57.54000092
C    19.12999916   5.80999947  56.32999802
C    20.02000046   5.69999981  55.28999710
C    21.32999802   6.21999979  55.50000000
C    22.39000130   5.92000008  54.59000015
C    23.69999886   6.17999983  54.89999771
C    24.03000069   6.86999989  56.09000397
C    23.05000114   7.18999958  57.01000214
C    21.70000076   6.85999966  56.72999954
C    17.68000031   5.59999990  56.31999969
C    17.02000046   6.11999989  57.45999908
C    15.65000057   6.38000011  57.43000031
C    25.48000145   7.09000015  56.46999741
H    25.77222824   6.66947603  57.43221664
H    20.98999977   7.34000015  58.74000168
H    19.81999969   5.15999985  54.36999893
H    22.11999893   5.36000013  53.69999695
H    24.46000099   5.96000004  54.15000153
H    23.18000031   7.50000000  58.04000092
H    15.21999931   6.83000040  58.31999969
H    26.11000061   6.63000011  55.70000076
H    25.59999847   8.18000031  56.56000137
S    14.48999977   4.81999969  53.94000244
C    11.84000015   4.63000011  54.71000290
C    13.12000084   5.03999996  55.04000092
C    13.43999958   5.75000000  56.23000336
C    12.43999958   5.88999987  57.18000031
C    11.10999966   5.55999994  56.84000015
C    10.11000061   5.63000011  57.85999680
C     8.80999947   5.25000000  57.63000107
C     8.47000027   4.61999989  56.39999771
C     9.40999985   4.53999996  55.40000153
C    10.77999973   4.90000010  55.61000061
C    14.88000011   5.98000002  56.33999634
C    15.55999947   5.46999979  55.20000076
C    16.94000053   5.36000013  55.15999603
C     7.11999989   3.94000006  56.25999832
H     6.60814953   4.45895910  55.44957352
H    11.69999981   3.96000004  53.88000107
H    12.74000072   6.14000034  58.18999863
H    10.46000004   5.98999977  58.81999969
H     8.10999966   5.38000011  58.44999695
H     9.23999977   3.88000011  54.55999756
H    17.39999962   5.05000019  54.22000122
H     6.51999998   4.03999996  57.16999817
H     7.27999973   2.89000010  56.00000000
S    14.85999966   2.73000002  50.90000153
C    12.28999996   2.00000000  51.59000015
C    13.63000011   1.80000007  51.79999924
C    14.13000011   1.13000000  52.95999908
C    13.19000053   0.50999999  53.75999832
C    11.78999996   0.63000000  53.54999924
C    10.90000057   0.22000000  54.56999969
C     9.56999969   0.57999998  54.59000015
C     9.09000015   1.33000004  53.47999954
C     9.92999935   1.69000006  52.43999863
C    11.31999969   1.36999989  52.41000366
C    15.52999973   1.48000002  53.18999863
C    16.04999924   2.25999999  52.12999725
C    17.35999870   2.72000027  52.21000290
C     7.62000036   1.64000010  53.34999847
H     7.18728781   1.02285337  52.56260300
H    12.02999973   2.79000020  50.89000320
H    13.50000000   0.09999999  54.72000122
H    11.35000038  -0.25999999  55.43000031
H     8.90999985   0.38000000  55.43000031
H     9.59999943   2.33999991  51.65000153
H    17.71999931   3.25000000  51.33999634
H     7.14999962   1.49000001  54.31999969
H     7.57000017   2.71000004  53.11999893
S    18.84000015   1.46000004  55.59000015
C    21.47999954   2.00999999  54.91000366
C    20.15999985   2.00999999  54.54000092
C    19.63000107   2.66999984  53.37999725
C    20.50000000   3.17999983  52.43999863
C    21.88999939   3.08999991  52.68000031
C    22.89999962   3.48000002  51.76000214
C    24.23999977   3.25000000  51.97999954
C    24.70000076   2.72000027  53.22000122
C    23.75999832   2.38999987  54.15999985
C    22.36000061   2.54999995  53.93000031
C    18.19000053   2.47000003  53.30999756
C    17.59000015   1.74000001  54.36999893
C    16.28999901   1.24000001  54.34000015
C    26.17000198   2.50000000  53.50999832
H    26.42520905   2.58506966  54.56628036
H    21.73000145   1.57000005  55.87999725
H    20.00000000   3.53999996  51.55000305
H    22.53000069   4.02999973  50.89000320
H    24.96999931   3.55999994  51.25000000
H    24.11000061   1.99000001  55.11000061
H    15.90999985   0.88999999  55.28999710
H    26.70999908   3.21000004  52.88000107
H    26.54999924   1.50000000  53.27999878
