96

S    17.72999954   6.17000008  58.94000244
C    20.42000008   6.14000034  58.26000214
C    19.13999939   5.75000000  57.95000076
C    18.78000069   5.25000000  56.65000153
C    19.79999924   5.18000031  55.72999954
C    21.14000130   5.51000023  56.04000092
C    22.15999985   5.59000015  55.05000305
C    23.42000008   6.07999992  55.31999969
C    23.78000069   6.44999981  56.63999939
C    22.84000015   6.32999992  57.63999939
C    21.51000023   5.91000032  57.37999725
C    17.34000015   5.07999992  56.52000046
C    16.64999962   5.55999994  57.67000198
C    15.26999950   5.73000002  57.63000107
C    25.22999954   6.71999979  56.95999908
H    25.56394577   5.90289640  57.59946823
H    20.52999878   6.88000011  59.05000305
H    19.45000076   4.98000002  54.72000122
H    21.91999817   5.09000015  54.10999680
H    24.11000061   6.21000004  54.50000000
H    23.18000031   6.63000011  58.62999725
H    14.85000038   6.17999983  58.52000427
H    25.76999855   6.72999954  56.00000000
H    25.36999893   7.71000004  57.42000198
S    14.19000053   4.05000019  54.20000076
C    11.46000004   3.93000007  54.97000122
C    12.75000000   4.34999990  55.19000244
C    13.12000084   5.09000015  56.36000061
C    12.11999989   5.44000053  57.23999786
C    10.77000046   5.05999994  57.05999756
C     9.76000023   5.31000042  58.04000092
C     8.46000004   4.96000004  57.75000000
C     8.10000038   4.21999979  56.59000015
C     9.07999992   3.96000004  55.66999817
C    10.43000031   4.35999966  55.84999847
C    14.55999947   5.29999971  56.51000214
C    15.26999950   4.80999994  55.38999939
C    16.65999985   4.71000004  55.35999680
C     6.70000029   3.72000003  56.30000305
H     6.22294521   4.35369968  55.55237961
H    11.18000031   3.37000012  54.08000183
H    12.38000011   5.84000015  58.22000122
H    10.10000038   5.80999947  58.94000244
H     7.76999998   4.96000004  58.57999802
H     8.82000065   3.49000001  54.72000122
H    17.20000076   4.42000008  54.45999908
H     6.15999985   3.61999989  57.25000000
H     6.72999954   2.73000002  55.84999847
S    14.44000053   1.94000006  51.02000427
C    11.80999947   1.25999999  51.81000137
C    13.17000008   1.22000003  52.02999878
C    13.68000031   0.67000002  53.25000000
C    12.81999969   0.27000001  54.25000000
C    11.43000031   0.50999999  54.06000137
C    10.44999981   0.28000000  55.06000137
C     9.11999989   0.59000003  54.93000031
C     8.55000019   1.00999999  53.69999695
C     9.46000004   1.19000006  52.68000031
C    10.85999966   0.97000003  52.81999969
C    15.10000038   0.93999994  53.43000031
C    15.62000084   1.63000000  52.30999756
C    16.92000008   2.11999989  52.28000259
C     7.05999947   1.00999999  53.47000122
H     6.75989199   0.35976642  52.64827728
H    11.51000023   1.63000000  50.83000183
H    13.10999966  -0.09999999  55.22999573
H    10.73999977  -0.07000000  56.04999924
H     8.52000046   0.57999998  55.83000183
H     9.13999939   1.46000004  51.66999817
H    17.39999962   2.54999995  51.40999603
H     6.53999996   0.54000002  54.31999969
H     6.67000008   2.02999997  53.37999725
S    18.47999954   0.85000002  55.76000214
C    21.07999992   1.43999994  54.91000366
C    19.72999954   1.54999995  54.71000290
C    19.18000031   2.04999995  53.47999954
C    20.03999901   2.61000013  52.55000305
C    21.44000053   2.51999998  52.74000168
C    22.36000061   2.94999981  51.73999786
C    23.68999863   3.14000010  52.02999878
C    24.18999863   2.61000013  53.25000000
C    23.39999962   1.89999998  54.13000107
C    21.98999786   1.93000007  53.93000031
C    17.75000000   1.85000002  53.37999725
C    17.28000069   1.07000005  54.47000122
C    15.98000050   0.57999998  54.45999908
C    25.58000183   3.05999994  53.62999725
H    26.02045822   2.49877024  54.45408249
H    21.56999969   1.22000003  55.86000061
H    19.64999962   3.01999998  51.63000107
H    22.01999855   3.45000005  50.84000015
H    24.26000214   3.81999993  51.38999939
H    23.88000107   1.58999991  55.05000305
H    15.40999985   0.08000001  55.24000168
H    25.35000038   4.05999994  53.99000168
H    26.25999832   3.01999998  52.76000214
