96

S    17.78000069   6.28000021  58.70999908
C    20.45000076   6.74000025  57.84999847
C    19.19000053   6.21999979  57.63000107
C    18.78999901   5.66999960  56.37000275
C    19.71999931   5.52999973  55.35999680
C    21.04999924   5.98999977  55.54999924
C    21.98999786   5.97000027  54.47999954
C    23.26000023   6.44999981  54.66999817
C    23.55999947   7.00999975  55.93000031
C    22.63999939   7.30000019  56.90999985
C    21.38000107   6.65999985  56.77999878
C    17.35000038   5.59000015  56.20999908
C    16.64999962   5.82999992  57.42000198
C    15.26000023   5.91000032  57.44999695
C    25.03000069   7.30000019  56.16000366
H    25.42847824   6.75209188  57.01388550
H    20.66999817   7.18999958  58.80000305
H    19.44000053   5.03999996  54.43000031
H    21.64999962   5.47999954  53.55999756
H    24.03000069   6.35999966  53.90999603
H    22.93000031   7.69000006  57.88000107
H    14.86999989   6.17000008  58.43000031
H    25.65999985   7.00000000  55.31000137
H    25.22000122   8.36999989  56.24000168
S    13.99000072   4.90000010  53.88999939
C    11.39999962   4.38000011  54.84000397
C    12.64000034   4.94999981  55.04000092
C    13.02000046   5.47999954  56.31000137
C    12.07999992   5.50000000  57.32999802
C    10.78999996   4.92999983  57.18000031
C     9.81000042   4.94000006  58.20999908
C     8.55000019   4.42999983  57.97000122
C     8.19000053   3.97000027  56.68000031
C     9.11000061   3.98000002  55.65000153
C    10.44000053   4.42999983  55.87999725
C    14.46000004   5.68000031  56.32999802
C    15.15999985   5.29999971  55.14999771
C    16.54999924   5.26999998  55.10000229
C     6.76999998   3.67000008  56.27999878
H     6.33096504   4.56931353  55.84804535
H    11.17000008   3.89999986  53.88999939
H    12.42000008   5.98000002  58.23999786
H    10.03999901   5.36999989  59.18000031
H     7.76999998   4.41000032  58.72000122
H     8.80000019   3.75999975  54.62999725
H    16.94000053   4.92999983  54.15000153
H     6.21999979   3.32999992  57.16999817
H     6.84000015   2.86000013  55.54999924
S    13.99000072   2.34999990  51.04000092
C    11.42000008   1.85000002  52.04999924
C    12.77999973   1.81999993  52.22000122
C    13.40999985   1.25000000  53.36999893
C    12.60000038   0.68000007  54.33000183
C    11.18999958   0.71000004  54.23999786
C    10.31999969   0.09999999  55.19000244
C     8.97000027   0.08000001  54.97000122
C     8.39999962   0.55000001  53.75999832
C     9.19000053   1.24000001  52.87000275
C    10.59999943   1.30999994  53.06999969
C    14.80999947   1.64000010  53.44999695
C    15.27999973   2.23000002  52.25000000
C    16.59000015   2.63000011  52.00000000
C     6.93000031   0.43000001  53.41999817
H     6.73052263  -0.48189628  52.85718918
H    11.10000038   2.31999993  51.11999893
H    13.22000027   0.28000000  55.13000107
H    10.82999992  -0.29999998  56.05999756
H     8.34999943  -0.48999998  55.66999817
H     8.73000050   1.80999994  52.06999969
H    16.90999985   3.10999990  51.07999802
H     6.37000036   0.38000000  54.36999893
H     6.58999968   1.29999995  52.84999847
S    18.38999939   1.53999996  55.31000137
C    20.95999908   2.27999997  54.41999817
C    19.60000038   2.25000000  54.22000122
C    18.97999954   2.71000004  53.02000046
C    19.84000015   3.09999990  52.00000000
C    21.24000168   3.21000004  52.18999863
C    22.11000061   3.63999987  51.14999771
C    23.47999954   3.68999982  51.30000305
C    24.04999924   3.26999998  52.52999878
C    23.26000023   2.73000002  53.53000259
C    21.84999847   2.73000002  53.40000153
C    17.54999924   2.43000007  52.98999786
C    17.05000114   1.89999998  54.20999908
C    15.73999977   1.54999995  54.48999786
C    25.48000145   3.63999987  52.81999969
H    25.94868660   3.29913735  53.74317169
H    21.38999939   1.84000003  55.31000137
H    19.34000015   3.25999999  51.04999924
H    21.57999992   4.01999998  50.27999878
H    23.97000122   4.38000011  50.63000107
H    23.65999985   2.40999985  54.48999786
H    15.38000011   1.01999998  55.37000275
H    25.52000046   4.74000025  52.87000275
H    26.09000015   3.45999980  51.91999817
