96

S    16.67000008   5.69000006  58.85000229
C    19.31999969   5.86999989  58.11000061
C    18.04999924   5.46999979  57.76000214
C    17.64000130   5.10999966  56.44000244
C    18.63000107   5.10999966  55.47000122
C    19.90999985   5.66999960  55.75000000
C    20.94000053   5.72000027  54.77000427
C    22.23999977   6.07999992  55.04000092
C    22.52000046   6.60000038  56.33999634
C    21.54000092   6.67000008  57.29999924
C    20.26000023   6.09000015  57.08000183
C    16.20000076   4.97000027  56.36000061
C    15.52000046   5.29999971  57.56000137
C    14.13000011   5.36999989  57.57999802
C    23.92999840   7.09000015  56.59999847
H    24.43553543   6.55598211  57.40458298
H    19.45999908   6.30000019  59.09999847
H    18.47999954   4.71000004  54.47999954
H    20.66999817   5.36000013  53.77999878
H    22.95000076   6.11000013  54.22000122
H    21.73999977   7.03000021  58.29999924
H    13.61999989   5.33999968  58.54000092
H    24.59000015   7.07999992  55.72000122
H    23.84000015   8.14999962  56.86000061
S    13.00000000   4.00999975  54.01000214
C    10.44999981   3.37000012  54.95999908
C    11.65999985   3.98000002  55.18000031
C    11.96000004   4.73000002  56.37000275
C    11.05000019   4.86999989  57.39999771
C     9.73999977   4.40000010  57.15999985
C     8.71999931   4.59000015  58.13999939
C     7.46999979   4.03999996  57.97999954
C     7.18999958   3.30999994  56.79999924
C     8.13000011   3.25000000  55.79000092
C     9.47000027   3.68999982  55.93999863
C    13.38999939   4.98000002  56.45999908
C    14.09000015   4.61000013  55.27999878
C    15.47000027   4.67999983  55.19000244
C     5.75000000   2.91000009  56.56000137
H     5.20674944   3.47469497  55.80230713
H    10.26000023   2.87999988  54.01000214
H    11.39000034   5.26000023  58.36000061
H     8.97000027   5.00999975  59.10999680
H     6.75000000   4.13999987  58.79000092
H     8.00000000   2.93000007  54.75999832
H    15.92000008   4.50000000  54.22000122
H     5.26000023   2.96000004  57.54000092
H     5.86999989   1.85000002  56.26999664
S    16.94000053   6.56000042  52.57999802
C    19.55999947   6.90000010  51.72999954
C    18.32999992   6.34000015  51.49000168
C    17.90999985   5.69999981  50.27999878
C    18.88000107   5.60999966  49.29000092
C    20.17999840   6.14000034  49.48999786
C    21.21000099   6.02999973  48.50999832
C    22.46999931   6.52999973  48.74000168
C    22.76000023   7.23000002  49.93999863
C    21.78999901   7.46000004  50.89000320
C    20.53999901   6.81999969  50.70000076
C    16.51000023   5.31000042  50.19000244
C    15.88999939   5.77000046  51.38999939
C    14.51000023   5.82999992  51.42000198
C    24.18999863   7.68000031  50.14999771
H    24.73822212   7.03922129  50.84061432
H    19.77000046   7.53999996  52.57999802
H    18.68000031   5.14999962  48.33000183
H    21.02999878   5.42000008  47.63000107
H    23.23999786   6.38000011  47.98999786
H    21.98999786   8.10000038  51.75000000
H    14.02999973   6.38000011  52.22999954
H    24.77000046   7.79999971  49.22999954
H    24.15999985   8.64999962  50.65999985
S    13.17000008   4.26999998  48.04000092
C    10.51000023   4.09000015  48.99000168
C    11.80999947   4.50000000  49.15999985
C    12.25999928   5.15999985  50.34000015
C    11.39999962   5.23999977  51.42000198
C    10.06000042   4.80999994  51.31000137
C     9.06999969   4.80999994  52.34000397
C     7.76000023   4.38000011  52.22000122
C     7.31999969   3.94000006  50.94999695
C     8.27000046   3.78999996  49.95999908
C     9.59000015   4.30000019  50.05000305
C    13.71000099   5.33999968  50.38000107
C    14.34999943   4.90000010  49.19000244
C    15.73999977   4.96000004  49.08000183
C     5.92000008   3.48000002  50.61000061
H     5.45860052   3.94139981  49.73689270
H    10.19000053   3.47000003  48.15999985
H    11.76000023   5.56999969  52.38999939
H     9.35000038   5.22000027  53.29999924
H     7.05999947   4.44999981  53.04999924
H     7.96000004   3.37000012  49.00000000
H    16.22999954   4.76999998  48.13999939
H     5.25000000   3.72000003  51.45000076
H     5.97000027   2.39999986  50.40999985
