96

S    17.05000114   6.37000036  58.59000397
C    19.75000000   6.60000038  57.87000275
C    18.46999931   6.19999981  57.55000305
C    18.13999939   5.71000004  56.25000000
C    19.13999939   5.64000034  55.28999710
C    20.38999939   6.25999975  55.52000046
C    21.35999870   6.32000017  54.47999954
C    22.67999840   6.56000042  54.77000427
C    23.03999901   7.05999947  56.04000092
C    22.09000015   7.07000017  57.02999878
C    20.72999954   6.71000004  56.84999847
C    16.72000122   5.44000053  56.10000229
C    16.00000000   5.86000013  57.25000000
C    14.61999989   5.79999971  57.34000397
C    24.48999786   7.42999983  56.25000000
H    24.89451790   7.10354805  57.20806885
H    19.96000099   6.90000010  58.88999939
H    19.04999924   5.13999987  54.31999969
H    21.05999947   5.92999983  53.50999832
H    23.47999954   6.44000006  54.03999710
H    22.30999947   7.42999983  58.04000092
H    14.01999950   6.24000025  58.13000107
H    25.13000107   7.09999990  55.41999817
H    24.46000099   8.52999973  56.31999969
S    13.43000031   4.35999966  53.87000275
C    10.82999992   3.84000015  54.79999924
C    12.06999969   4.38000011  55.00999832
C    12.41000080   5.10999966  56.19999695
C    11.43000031   5.32000017  57.15000153
C    10.11999989   4.78999996  57.00000000
C     9.13000011   4.85000038  58.02000046
C     7.82999992   4.44000006  57.84000015
C     7.48000050   3.84999990  56.59000015
C     8.48999977   3.61999989  55.68999863
C     9.82999992   4.09000015  55.77999878
C    13.85000038   5.19000006  56.33999634
C    14.55999947   4.80999994  55.17000198
C    15.93999958   4.90000010  55.06999969
C     6.19999981   3.09999990  56.31000137
H     5.71625900   3.54817200  55.44210815
H    10.46000004   3.28000021  53.94000244
H    11.67000008   5.69000006  58.13999939
H     9.48999977   5.28999996  58.95000076
H     7.13000011   4.46999979  58.67000198
H     8.30999947   2.75999999  55.04000092
H    16.38000107   4.67000008  54.10999680
H     5.58000040   2.98000002  57.21000290
H     6.54999971   2.13000011  55.96000290
S    13.26000023   1.82999992  51.05999756
C    10.70000076   1.22000003  52.04000092
C    12.06999969   1.23000002  52.22000122
C    12.71999931   0.78000003  53.40999985
C    11.92000008   0.11000000  54.31999969
C    10.52000046  -0.03000000  54.19000244
C     9.61999989  -0.48000002  55.20000076
C     8.25000000  -0.56000000  55.05000305
C     7.69000006  -0.12000000  53.81999969
C     8.52000046   0.39999998  52.84999847
C     9.92999935   0.48000002  52.97999954
C    14.11000061   1.21000004  53.46000290
C    14.57999992   1.75999999  52.23999786
C    15.90999985   2.11999989  52.06999969
C     6.21000004  -0.03000000  53.54000092
H     5.98911715  -0.71402335  52.72059631
H    10.21000004   1.80000007  51.26999664
H    12.51999950  -0.19000000  55.17000198
H    10.00000000  -0.52999997  56.20999908
H     7.64999962  -0.79000002  55.91999817
H     7.99000025   0.71000004  51.93999863
H    16.32999992   2.23000002  51.07999802
H     5.56999969  -0.16000001  54.41999817
H     5.98000002   1.01999998  53.29999924
S    17.67000008   1.34000003  55.54000092
C    20.25000000   1.80000007  54.52000046
C    18.89000130   1.79000008  54.31999969
C    18.25000000   2.25000000  53.11999893
C    19.06999969   2.66000009  52.09000015
C    20.48000145   2.75999999  52.23999786
C    21.37000084   3.35999990  51.30000305
C    22.72000122   3.48000002  51.52999878
C    23.28000069   3.05999994  52.76000214
C    22.43999863   2.56999993  53.73000336
C    21.05999947   2.31999993  53.47999954
C    16.80999947   2.09000015  53.15000153
C    16.34000015   1.62000000  54.40000153
C    15.03999901   1.13999999  54.51000214
C    24.65999985   3.54999995  53.13999939
H    25.10744095   2.91790295  53.90703964
H    20.55000114   1.44999993  55.50000000
H    18.60999870   2.77999997  51.11000061
H    20.92000008   3.86999989  50.45000076
H    23.22999954   4.09000015  50.79000092
H    22.80999947   2.36000013  54.72999954
H    14.81999969   0.43000001  55.30000305
H    24.64999962   4.57999992  53.50000000
H    25.39999962   3.58999991  52.32999802
