96

S    18.06999969   6.61999989  58.57999802
C    20.72999954   6.71999979  57.87000275
C    19.47999954   6.19000006  57.58999634
C    19.11000061   5.40000010  56.45999908
C    20.10999870   5.22000027  55.52000046
C    21.42999840   5.66999960  55.79000092
C    22.44999886   5.36999989  54.85000229
C    23.72999954   5.73999977  55.17000198
C    24.07999992   6.40999985  56.38000107
C    23.12000084   6.74000025  57.29999924
C    21.78999901   6.34000015  57.01000214
C    17.67000008   5.23000002  56.38000107
C    16.95000076   5.82000017  57.44999695
C    15.57000065   5.98999977  57.43999863
C    25.48000145   6.86999989  56.72000122
H    25.81362915   6.30922174  57.59311295
H    20.85000038   7.31999969  58.76999664
H    19.97999954   4.76000023  54.54000092
H    22.25000000   4.88000011  53.89999771
H    24.44000053   5.52999973  54.36999893
H    23.22999954   7.37999964  58.18000031
H    14.98999977   6.17000008  58.34000015
H    26.14000130   6.63999987  55.86999893
H    25.55000114   7.94000053  56.93999863
S    14.56999969   4.30000019  53.92000198
C    11.87999916   4.19999981  54.59000015
C    13.15000057   4.61999989  54.93000031
C    13.50000000   5.21000004  56.18999863
C    12.46999931   5.32000017  57.11000061
C    11.14999962   4.92000008  56.79000092
C    10.05000019   5.27999973  57.62000275
C     8.78000069   4.85000038  57.29999924
C     8.52000046   4.21999979  56.04999924
C     9.52000046   3.84999990  55.19000244
C    10.81999969   4.32999992  55.52000046
C    14.93000031   5.44000053  56.31999969
C    15.62999916   4.92000008  55.20999908
C    17.02000046   4.88999987  55.19000244
C     7.14999962   3.65000010  55.77000046
H     6.62945700   4.15628147  54.95709610
H    11.75000000   3.91000009  53.54999924
H    12.69999981   5.95000029  57.95999908
H    10.24000072   5.77000046  58.57999802
H     7.92000008   4.84000015  57.97000122
H     9.30000019   3.30000019  54.27000046
H    17.53000069   4.55999994  54.27999878
H     6.53999996   3.68000007  56.68000031
H     7.20000029   2.56999993  55.54000092
S    18.73999977   6.40999985  52.78999710
C    21.38999939   6.80000019  52.02000046
C    20.13000107   6.38000011  51.68000031
C    19.78000069   5.92000008  50.37000275
C    20.78000069   5.92000008  49.41999817
C    22.07999992   6.38000011  49.75000000
C    23.06999969   6.50000000  48.73000336
C    24.36000061   6.84999990  49.02999878
C    24.73999977   7.21000004  50.34999847
C    23.80000114   7.13999987  51.35000229
C    22.46000099   6.72999954  51.09000397
C    18.34000015   5.78000021  50.22999573
C    17.65999985   5.98999977  51.45000076
C    16.27000046   6.02999973  51.52999878
C    26.11000061   7.77999973  50.65999985
H    26.69313812   7.15419292  51.33558655
H    21.64999962   7.35000038  52.91999817
H    20.39999962   5.59999990  48.44999695
H    22.73999977   6.28000021  47.71999741
H    25.09000015   6.80999994  48.22000122
H    24.23999977   7.53999996  52.25999832
H    15.67999935   6.32999992  52.38999939
H    26.73999977   7.76000023  49.77000427
H    25.97999954   8.80000019  51.04999924
S    15.08999920   4.84000015  47.88000107
C    12.48000050   4.63999987  48.64999771
C    13.71999931   5.13999987  48.95999908
C    14.11000061   5.75999975  50.19000244
C    13.09000015   5.96000004  51.10000229
C    11.78999996   5.47999954  50.83000183
C    10.75000000   5.69000006  51.77000046
C     9.52000046   5.07999992  51.66999817
C     9.26000023   4.26999998  50.52999878
C    10.18000031   4.13999987  49.52000046
C    11.46999931   4.73000002  49.64000320
C    15.55999947   5.72000027  50.35999680
C    16.21000099   5.36999989  49.15999985
C    17.60000038   5.45000029  49.09000015
C     7.82999992   3.76999998  50.40000153
H     7.25755358   4.34244633  49.67013168
H    12.18999958   4.11000013  47.74000168
H    13.30000019   6.46000004  52.04999924
H    11.06999969   6.21999979  52.65999603
H     8.85999966   5.22000027  52.50999832
H    10.01999950   3.61000013  48.59000397
H    18.11000061   5.09999990  48.20000076
H     7.31999969   3.82999992  51.37000275
H     7.82999992   2.72000027  50.08999634
