96

S    18.17000008   6.42000008  58.75999832
C    20.85000038   6.61000013  57.90999985
C    19.56999969   6.12999964  57.70999908
C    19.20999908   5.55999994  56.44000244
C    20.22999954   5.29999971  55.54999924
C    21.55999947   5.77000046  55.70999908
C    22.60999870   5.45000029  54.79999924
C    23.92000008   5.73000002  55.10000229
C    24.23000145   6.48000002  56.26999664
C    23.23999786   6.71999979  57.18999863
C    21.87000084   6.44000006  56.93999863
C    17.77000046   5.40000010  56.31000137
C    17.09000015   5.80999947  57.48000336
C    15.71000004   5.84999990  57.61000061
C    25.65000153   6.90999985  56.59999847
H    26.06352997   6.35387373  57.44131851
H    21.11000061   7.16000032  58.81000137
H    19.96000099   4.72000027  54.66999817
H    22.30999947   5.01999950  53.85000229
H    24.76000023   5.44000053  54.47999954
H    23.51000023   7.13999987  58.15999985
H    15.26999950   6.17000008  58.54999924
H    26.25999832   6.65000010  55.72999954
H    25.55000114   8.00000000  56.59999847
S    14.47000027   4.36999989  54.10999680
C    11.76000023   4.61999989  54.86000061
C    13.09000015   4.82999992  55.13000107
C    13.48000050   5.38000011  56.39999771
C    12.48000050   5.82000017  57.23999786
C    11.10999966   5.59000015  56.95999908
C    10.06000042   5.95000029  57.84999847
C     8.73000050   5.65999985  57.62000275
C     8.38999939   4.97000027  56.43000031
C     9.34000015   4.61000013  55.50000000
C    10.71000004   4.90999985  55.76000214
C    14.93000031   5.50000000  56.50000000
C    15.57999992   5.07999992  55.31000137
C    16.95999908   5.10999966  55.20000076
C     6.97000027   4.46999979  56.26999664
H     6.57084846   4.79074669  55.30775833
H    11.47999954   4.15999985  53.92000198
H    12.72999954   6.39999962  58.13000107
H    10.24000072   6.28000021  58.86000061
H     8.05000019   5.61999989  58.46000290
H     9.11000061   4.11999989  54.55999756
H    17.39999962   5.00999975  54.20999908
H     6.34000015   4.85000038  57.08000183
H     6.90999985   3.37000012  56.27999878
S    18.47999954   6.98000002  52.77999878
C    21.09999847   7.02000046  51.83000183
C    19.81999969   6.51999998  51.70999908
C    19.43000031   5.77000046  50.56000137
C    20.36000061   5.47999954  49.58000183
C    21.61000061   6.14000034  49.59000015
C    22.53000069   5.92000008  48.53000259
C    23.81000137   6.42000008  48.67000198
C    24.18000031   7.22000027  49.78000259
C    23.22999954   7.62000036  50.68999863
C    21.98999786   6.93000031  50.73999786
C    17.97999954   5.86000013  50.47999954
C    17.28999901   6.34999990  51.62000275
C    15.93999958   6.69000053  51.60999680
C    25.61000061   7.64999962  50.05000305
H    25.95895767   6.93783951  50.79777145
H    21.37000084   7.53999996  52.75000000
H    20.20999908   4.76999998  48.76999664
H    22.11000061   5.42000008  47.65999603
H    24.54999924   6.10000038  47.94000244
H    23.44000053   8.27999973  51.52999878
H    15.52000046   7.32999992  52.36999893
H    26.31000137   7.62000036  49.20999908
H    25.63999939   8.64000034  50.52000046
S    14.77000046   5.09000015  48.15999985
C    12.10999966   5.10999966  48.95000076
C    13.40000057   5.51000023  49.20999908
C    13.75000000   6.19000006  50.41999817
C    12.76999950   6.38000011  51.38999939
C    11.43000031   6.05000019  51.07999802
C    10.38000011   6.34000015  51.98999786
C     9.11000061   5.88999987  51.72000122
C     8.76999950   5.05999994  50.61000061
C     9.77000046   4.78999996  49.71000290
C    11.06999969   5.31000042  49.89999771
C    15.19999981   6.25999975  50.50000000
C    15.88000107   5.65000010  49.41999817
C    17.26000023   5.45000029  49.34999847
C     7.39000034   4.48000002  50.40000153
H     6.95699501   4.71424866  49.42751312
H    11.80999947   4.56999969  48.04999924
H    13.22000027   6.90000010  52.22999954
H    10.62000084   6.72999954  52.97999954
H     8.43000031   6.03999996  52.55000305
H     9.64999962   4.21000004  48.80000305
H    17.75000000   5.23000002  48.40999985
H     6.76000023   4.94999981  51.16000366
H     7.31999969   3.40999985  50.63000107
