96

S    17.13000107   6.07999992  58.89999771
C    19.81999969   6.19999981  58.09000015
C    18.50000000   5.93999958  57.77999878
C    18.11000061   5.59999990  56.44000244
C    19.05999947   5.61999989  55.43000031
C    20.42000008   5.89999962  55.68999863
C    21.44000053   5.92000008  54.69999695
C    22.60999870   6.61999989  54.86000061
C    22.95000076   7.03000021  56.18000031
C    22.07999992   6.76999998  57.21000290
C    20.78000069   6.21000004  57.04000092
C    16.68000031   5.35000038  56.36000061
C    16.02000046   5.61999989  57.58999634
C    14.63999939   5.73000002  57.69000244
C    24.23000145   7.75000000  56.52000046
H    24.87309074   7.15692902  57.17023468
H    19.96999931   6.75000000  59.01000214
H    18.67000008   5.46999979  54.41999817
H    21.05999947   5.50000000  53.76999664
H    23.26999855   6.76000023  54.00000000
H    22.27999878   7.09000015  58.22999954
H    14.22000027   6.09000015  58.61999893
H    24.75000000   7.90000010  55.56000137
H    23.97000122   8.73000050  56.95000076
S    13.45999908   4.34999990  54.09000015
C    10.85999966   3.86000013  55.05000305
C    12.10999966   4.39000034  55.24000168
C    12.44999981   5.07000017  56.45999908
C    11.44000053   5.26999998  57.38999939
C    10.13000011   4.76000023  57.25000000
C     9.15999985   4.74000025  58.29000092
C     7.86999989   4.30999994  58.09000015
C     7.50999975   3.72000003  56.84999847
C     8.52000046   3.55999994  55.93000031
C     9.85000038   4.05999994  56.03000259
C    13.88000011   5.29999971  56.59000015
C    14.51000023   4.99000025  55.35999680
C    15.88999939   5.10999966  55.22999573
C     6.15000010   3.07000017  56.66999817
H     5.67924023   3.54075980  55.80693817
H    10.69000053   3.21000004  54.19000244
H    11.69000053   5.65999985  58.36999893
H     9.40999985   5.13000011  59.27999878
H     7.14999962   4.32000017  58.89999771
H     8.30999947   3.00000000  55.01999664
H    16.39999962   4.79999971  54.33000183
H     5.42000008   3.24000001  57.47000122
H     6.28000021   1.99000001  56.77000046
S    16.93000031   6.98999977  52.50000000
C    19.60000038   7.22000027  51.73999786
C    18.37000084   6.63999987  51.52999878
C    17.97000122   5.92000008  50.35999680
C    18.93000031   5.73000002  49.38000107
C    20.22999954   6.24000025  49.62999725
C    21.28999901   6.02999973  48.69999695
C    22.56000137   6.52999973  48.87000275
C    22.84000015   7.42000008  49.93999863
C    21.87999916   7.68000031  50.89000320
C    20.59000015   7.09999990  50.72999954
C    16.53000069   5.72000027  50.25000000
C    15.80000019   6.28000021  51.32999802
C    14.40999985   6.30000019  51.36000061
C    24.23999977   7.92999983  50.20000076
H    24.90525246   7.40628862  50.88648605
H    19.81999969   7.86000013  52.57999802
H    18.68000031   5.38000011  48.39000320
H    20.95000076   5.49000025  47.81999969
H    23.35000038   6.19999981  48.22000122
H    22.07999992   8.31999969  51.75000000
H    13.89999962   6.39999962  52.30999756
H    24.70000076   7.96999979  49.20000076
H    24.23000145   9.00000000  50.43000031
S    13.40000057   4.74000025  47.87000275
C    10.80000019   4.26000023  48.73000336
C    12.02000046   4.84000015  48.97999573
C    12.28000069   5.46000004  50.24000168
C    11.35000038   5.46000004  51.26999664
C    10.13000011   4.79999971  50.98999786
C     9.19999981   4.51000023  52.02999878
C     7.94000053   4.00999975  51.81000137
C     7.57999992   3.51000023  50.52999878
C     8.53999996   3.52999973  49.54999924
C     9.78999996   4.19000006  49.72999954
C    13.68999958   5.82999992  50.26000214
C    14.46000004   5.36000013  49.15999985
C    15.84000015   5.23999977  49.13000107
C     6.15999985   3.17000008  50.12000275
H     5.76838732   3.90338326  49.41510010
H    10.65999985   3.81000018  47.76000214
H    11.61999893   5.72000027  52.29000092
H     9.51000023   4.80999994  53.02999878
H     7.30999994   3.86000013  52.68000031
H     8.30000019   3.14000010  48.56999969
H    16.31000137   4.88000011  48.22000122
H     5.61999989   3.17000008  51.07999802
H     6.23000050   2.20000005  49.61000061
