96

S    18.01000023   6.21000004  58.76999664
C    20.62000084   6.51999998  57.91999817
C    19.37999916   5.97000027  57.68000031
C    19.00000000   5.31000042  56.46999741
C    19.96000099   5.23000002  55.47000122
C    21.28000069   5.69999981  55.68999863
C    22.32999992   5.52999973  54.75000000
C    23.59000015   6.05999994  54.89999771
C    23.95999908   6.65000010  56.13999939
C    22.95999908   6.83000040  57.06999969
C    21.61999893   6.38000011  56.91999817
C    17.56999969   5.03999996  56.38999939
C    16.92000008   5.51000023  57.56000137
C    15.54999924   5.73999977  57.55000305
C    25.38999939   7.13000011  56.26999664
H    25.84539032   6.49672031  57.03136063
H    20.88999939   6.98999977  58.86000061
H    19.69000053   4.88000011  54.47999954
H    22.11999893   5.05999994  53.79000092
H    24.34000015   6.10000038  54.12000275
H    23.19999886   7.42000008  57.95000076
H    15.11000061   6.00000000  58.50999832
H    25.96999931   6.91999960  55.37000275
H    25.29999924   8.21000004  56.46999741
S    14.37999916   4.38000011  54.03999710
C    11.69000053   3.98999977  54.92000198
C    12.94999981   4.53000021  55.07999802
C    13.34000015   5.22000027  56.26999664
C    12.39999962   5.35000038  57.28000259
C    11.13999939   4.72000027  57.16999817
C    10.18000031   4.86000013  58.20999908
C     8.97000027   4.21000004  58.09999847
C     8.59000015   3.45000005  56.95999908
C     9.51000023   3.30999994  55.94999695
C    10.77000046   3.96000004  56.00000000
C    14.78000069   5.36000013  56.45000076
C    15.50000000   4.90999985  55.31000137
C    16.86000061   4.61000013  55.27000046
C     7.26999998   2.73000002  56.79999924
H     6.60592079   3.35169125  56.19950104
H    11.28000069   3.63000011  53.97999573
H    12.63000011   5.82999992  58.22999954
H    10.39000034   5.42999983  59.10999680
H     8.26000023   4.26999998  58.92000198
H     9.26999950   2.79000020  55.01999664
H    17.38999939   4.26999998  54.38999939
H     6.77999973   2.48000002  57.75000000
H     7.42000008   1.80999994  56.22000122
S    14.06000042   1.99000001  50.91999817
C    11.46000004   1.29999995  51.75000000
C    12.81000042   1.31999993  51.97999954
C    13.38000107   0.87000000  53.22000122
C    12.51000023   0.34999999  54.15999985
C    11.11999989   0.24000001  53.90999603
C    10.21999931  -0.39999998  54.80999756
C     8.89000034  -0.56999999  54.51000214
C     8.28999996  -0.01000000  53.34999847
C     9.15999985   0.55000001  52.44999695
C    10.55999947   0.71000004  52.67000198
C    14.78999996   1.18000007  53.36999893
C    15.26999950   1.82999992  52.19999695
C    16.56999969   2.31999993  52.15000153
C     6.80000019   0.07000000  53.09999847
H     6.45885468  -0.77575696  52.50299454
H    11.14999962   1.53999996  50.72999954
H    12.77999973  -0.11000000  55.11000061
H    10.62999916  -0.79000002  55.72999954
H     8.21000004  -1.08000004  55.18000031
H     8.89999962   0.93999994  51.46999741
H    16.92000008   2.84000015  51.25999832
H     6.39999962   0.09999999  54.12000275
H     6.57999992   1.03999996  52.63999939
S    18.30000114   0.75000000  55.31000137
C    20.89999962   1.36000013  54.55999756
C    19.55000114   1.48000002  54.29000092
C    18.96000099   2.16000009  53.18000031
C    19.80999947   2.79000020  52.29000092
C    21.18999863   2.76999998  52.58999634
C    22.14999962   3.25000000  51.65999985
C    23.50000000   3.15000010  51.86999893
C    24.04999924   2.68000007  53.09000015
C    23.16999817   2.14000010  54.00000000
C    21.77000046   2.10999990  53.73000336
C    17.51000023   1.99000001  53.13000107
C    16.98999977   1.28000009  54.23999786
C    15.65999985   0.93999994  54.43999863
C    25.52999878   2.44000006  53.30999756
H    26.08969879   3.21932745  53.82718658
H    21.22999954   0.71000004  55.35999680
H    19.37999916   3.17999983  51.37000275
H    21.83000183   3.61999989  50.68000031
H    24.21999931   3.28999996  51.06999969
H    23.59999847   1.50000000  54.77000427
H    15.29000092   0.29999998  55.24000168
H    26.07000160   2.26999998  52.37999725
H    25.72000122   1.54999995  53.93000031
