96

S    17.56999969   6.23000050  58.37999725
C    20.26000023   6.53999996  57.55000305
C    18.96000099   6.15000010  57.28000259
C    18.60999870   5.51000023  56.04999924
C    19.57999992   5.22000027  55.11000061
C    20.88000107   5.75999975  55.26000214
C    21.77000046   5.73999977  54.15000153
C    23.02999878   6.28000021  54.27999878
C    23.36000061   6.91999960  55.50000000
C    22.49000168   7.02000046  56.56000137
C    21.18000031   6.47000027  56.46999741
C    17.18000031   5.25000000  55.94999695
C    16.47999954   5.65999985  57.11000061
C    15.08999920   5.61999989  57.22999954
C    24.80999947   7.30999994  55.68999863
H    25.28633499   6.60616398  56.37250900
H    20.62999916   6.90000010  58.50000000
H    19.42000008   4.69000006  54.16999817
H    21.35000038   5.19000006  53.30999756
H    23.85999870   6.11999989  53.60000229
H    22.82999992   7.46000004  57.49000168
H    14.55000019   5.82000017  58.15000153
H    25.29999924   7.26000023  54.71000290
H    24.84000015   8.34000015  56.06999969
S    13.85000038   4.07000017  53.80000305
C    11.17000008   3.86999989  54.72999954
C    12.46999931   4.28000021  54.89999771
C    12.89999962   4.86999989  56.12999725
C    12.01000023   5.09000015  57.16999817
C    10.67999935   4.67000008  56.97000122
C     9.80000019   4.76999998  58.09000015
C     8.55000019   4.21000004  58.01000214
C     8.05999947   3.63999987  56.79999924
C     8.89999962   3.50000000  55.72000122
C    10.21999931   4.02999973  55.76000214
C    14.34000015   5.13000011  56.16000366
C    15.01000023   4.57999992  55.04000092
C    16.39000130   4.72000027  54.93000031
C     6.57000017   3.38999987  56.77000046
H     6.09196472   3.72533822  55.84960175
H    10.78999996   3.45000005  53.80000305
H    12.36999989   5.51999998  58.09999847
H    10.19999981   5.19000006  59.01000214
H     7.92000008   4.19999981  58.88999939
H     8.47000027   3.25999999  54.75000000
H    17.01000023   4.42999983  54.09000015
H     6.14000034   3.79999995  57.70000076
H     6.44999981   2.29999995  56.83000183
S    13.89999962   2.09999990  50.97000122
C    11.36000061   1.22000003  51.77000046
C    12.71999931   1.19000006  51.93000031
C    13.35999966   0.64000005  53.09000015
C    12.53999901   0.25999999  54.13999939
C    11.13000011   0.19000000  53.97999573
C    10.32999992  -0.46999997  54.94999695
C     8.97000027  -0.54000002  54.75999832
C     8.38999939   0.03000000  53.60000229
C     9.11999989   0.50999999  52.54000092
C    10.52999973   0.59000003  52.72999573
C    14.78999996   0.85000002  53.15999985
C    15.21999931   1.63000000  52.04999924
C    16.53000069   2.09999990  51.95000076
C     6.89000034   0.27000001  53.59000397
H     6.44130230  -0.02913162  52.64274979
H    10.90000057   1.72999990  50.93000031
H    13.01000023   0.01000000  55.07999802
H    10.76000023  -0.74000001  55.90999985
H     8.32999992  -0.75999999  55.61000061
H     8.80999947   0.97000003  51.60999680
H    16.79000092   2.73000002  51.10000229
H     6.39999962  -0.16000001  54.47999954
H     6.77999973   1.34000003  53.80000305
S    18.38000107   0.57999998  55.10000229
C    20.89999962   1.50000000  54.13999939
C    19.52000046   1.51999998  54.10999680
C    18.86999893   2.10999990  52.97999954
C    19.60000038   2.73999977  52.00000000
C    21.01000023   2.89000010  52.05999756
C    21.76000214   3.52999973  51.03000259
C    23.12999916   3.63999987  51.12999725
C    23.72999954   2.94999981  52.21000290
C    23.05999947   2.23000002  53.16999817
C    21.63999939   2.23000002  53.18000031
C    17.46000099   1.74000001  52.93000031
C    17.00000000   1.02999997  54.06999969
C    15.69000053   0.59999996  54.20000076
C    25.22999954   3.08999991  52.32999802
H    25.64923477   2.99762630  53.33190155
H    21.45999908   0.92000002  54.86999893
H    19.11000061   3.01999998  51.07999802
H    21.09000015   3.93000007  50.27999878
H    23.64000130   4.21999979  50.35999680
H    23.54000092   1.71000004  53.99000168
H    15.40999985  -0.12000000  54.97000122
H    25.50000000   4.05000019  51.88000107
H    25.72000122   2.32999992  51.70000076
