96

S    16.82999992   6.32999992  58.63999939
C    19.51000023   6.60000038  57.78999710
C    18.20999908   6.19999981  57.54000092
C    17.79999924   5.56999969  56.31999969
C    18.73999977   5.38999987  55.33000183
C    20.10000038   5.75000000  55.50000000
C    21.09000015   5.66999960  54.47999954
C    22.34999847   6.21000004  54.59000015
C    22.65000153   6.86999989  55.80999756
C    21.71999931   6.97000027  56.81999969
C    20.43999863   6.34999990  56.76000214
C    16.35000038   5.38000011  56.25999832
C    15.67000008   5.66999960  57.47000122
C    14.29999924   5.60999966  57.67000198
C    23.97000122   7.57000017  55.97000122
H    24.61553574   7.05215263  56.67938232
H    19.70999908   7.18999958  58.68000031
H    18.45999908   4.94000006  54.36999893
H    20.81000137   5.13000011  53.57999802
H    23.01000214   6.15000010  53.74000168
H    21.91999817   7.49000025  57.76000214
H    13.78000069   5.78999996  58.60000229
H    24.51999855   7.64999962  55.01999664
H    23.82999802   8.60999966  56.31000137
S    13.03999996   4.25000000  54.12000275
C    10.36999893   4.11999989  54.94999695
C    11.67000008   4.44999981  55.22999573
C    12.10999966   4.97000027  56.49000168
C    11.25000000   5.12000036  57.56000137
C     9.90999985   4.73000002  57.29999924
C     8.92000008   4.82999992  58.31999969
C     7.63000011   4.38000011  58.18000031
C     7.23000002   3.81999993  56.93999863
C     8.10999966   3.81999993  55.87999725
C     9.44999981   4.26999998  56.02000427
C    13.52000046   5.31000042  56.53999710
C    14.15999985   4.88999987  55.34000015
C    15.53999996   4.94999981  55.20999908
C     5.79999971   3.32999992  56.84000015
H     5.20441103   3.64197516  55.98207092
H    10.06999969   3.86000013  53.94000244
H    11.50000000   5.46000004  58.56999969
H     9.13000011   5.31000042  59.27000046
H     6.76000023   4.59999990  58.79000092
H     7.69999981   3.51999998  54.91000366
H    16.06999969   4.55999994  54.34000015
H     5.26000023   3.60000014  57.76000214
H     5.78000021   2.24000001  56.86999893
S    16.95999908   6.88000011  52.55000305
C    19.70999908   6.94999981  51.76000214
C    18.38999939   6.63999987  51.52000046
C    17.97000122   6.03999996  50.30000305
C    18.90999985   5.84000015  49.29999924
C    20.29000092   6.06999969  49.54000092
C    21.32999802   5.95000029  48.57999802
C    22.65999985   6.17000008  48.87000275
C    22.98000145   6.89000034  50.05000305
C    22.01000023   7.17999983  50.97999954
C    20.69999886   6.63999987  50.79999924
C    16.53000069   5.92000008  50.13999939
C    15.85999966   6.15000010  51.37000275
C    14.47999954   6.07999992  51.52000046
C    24.31999969   7.57000017  50.19000244
H    24.82344627   7.07364464  51.01962280
H    19.88999939   7.57999992  52.63000107
H    18.60000038   5.77000046  48.26000214
H    20.95999908   5.59999990  47.62000275
H    23.46999931   5.84000015  48.22999954
H    22.15999985   7.88000011  51.79000092
H    14.00000000   6.25999975  52.48000336
H    24.99000168   7.46999979  49.33000183
H    24.20000076   8.65999985  50.26000214
S    13.30999947   4.86999989  47.93000031
C    10.64000034   4.55999994  48.80000305
C    11.92999935   4.98000002  49.02999878
C    12.30999947   5.52999973  50.30000305
C    11.31999969   5.72000027  51.24000168
C     9.98000050   5.36999989  50.97000122
C     8.93999958   5.49000025  51.93999863
C     7.63999987   5.07000017  51.73999786
C     7.27999973   4.46999979  50.51000214
C     8.30000019   4.15000010  49.64000320
C     9.59000015   4.74000025  49.73999786
C    13.75000000   5.71000004  50.38000107
C    14.45000076   5.38999987  49.19000244
C    15.81999969   5.55000019  48.99000168
C     5.89999962   3.86999989  50.31999969
H     5.40408468   4.40842199  49.51236725
H    10.34999943   3.82999992  48.04999924
H    11.54000092   5.96000004  52.28000259
H     9.23999977   5.82999992  52.93000031
H     7.00000000   5.05000019  52.62000275
H     8.10999966   3.54999995  48.75000000
H    16.15999985   5.36000013  47.97999954
H     5.35000038   4.15999985  51.22000122
H     6.01999998   2.79000020  50.22999573
