96

S    16.79999924   5.92000008  58.89999771
C    19.45000076   6.17000008  57.95000076
C    18.17000008   5.66999960  57.80000305
C    17.73999977   5.21000004  56.51000214
C    18.68000031   5.10999966  55.50000000
C    20.00999832   5.56999969  55.63999939
C    20.94000053   5.65000010  54.56999969
C    22.26000023   5.91000032  54.81999969
C    22.67000008   6.40999985  56.09000397
C    21.77999878   6.43000031  57.14000320
C    20.43000031   6.02999973  56.93999863
C    16.29999924   5.01999950  56.43000031
C    15.65999985   5.46999979  57.61000061
C    14.27999973   5.55999994  57.74000168
C    24.01000023   7.05999947  56.35000229
H    24.50637627   6.62035131  57.21511459
H    19.86999893   6.53999996  58.88000107
H    18.45000076   4.77999973  54.48999786
H    20.59000015   5.44000053  53.55999756
H    22.82999992   6.05999994  53.89999771
H    22.06999969   6.80999994  58.11999893
H    13.83999920   6.05999994  58.60000229
H    24.67000008   6.94999981  55.47999954
H    23.78999901   8.11999989  56.50000000
S    12.97000027   4.13999987  54.22000122
C    10.29000092   4.26000023  55.04000092
C    11.61000061   4.53999996  55.28999710
C    12.09000015   5.26000023  56.44000244
C    11.16000080   5.51999998  57.43000031
C     9.80000019   5.15999985  57.29999924
C     8.93000031   5.18000031  58.43000031
C     7.69000006   4.59999990  58.36999893
C     7.17999983   4.07000017  57.15999985
C     8.01999950   4.07000017  56.06999969
C     9.35999966   4.55000019  56.06999969
C    13.53999996   5.19999981  56.59999847
C    14.14999962   4.59999990  55.47000122
C    15.52999973   4.48000002  55.40000153
C     5.84999990   3.37000012  57.00000000
H     5.38306332   3.61054325  56.04490280
H     9.96999931   3.74000025  54.13999939
H    11.54999924   5.82999992  58.39000320
H     9.30999947   5.51999998  59.38999939
H     7.07999992   4.63999987  59.27000046
H     7.83999968   3.55999994  55.13000107
H    15.95000076   4.07999992  54.47999954
H     5.22000027   3.70000005  57.84000015
H     6.03999996   2.33999991  57.29999924
S    16.69999886   6.32000017  52.67000198
C    19.30999947   6.61999989  51.81999969
C    18.07999992   6.03999996  51.59999847
C    17.73999977   5.51999998  50.31000137
C    18.71999931   5.47999954  49.33000183
C    20.06000137   5.77000046  49.68999863
C    21.11999893   5.69000006  48.74000168
C    22.39000130   6.12999964  49.01000214
C    22.69000053   6.84000015  50.20000076
C    21.67000008   7.03999996  51.10000229
C    20.38000107   6.47000027  50.90999985
C    16.29999924   5.35000038  50.17000198
C    15.64000034   5.75999975  51.35000229
C    14.26000023   5.86999989  51.49000168
C    24.04999924   7.48000050  50.22999573
H    24.74854088   6.89550591  50.82874680
H    19.38999939   7.30999994  52.65999603
H    18.35000038   5.23999977  48.34000015
H    20.81000137   5.45000029  47.72999573
H    23.02999878   6.09000015  48.13000107
H    21.93000031   7.68000031  51.95000076
H    13.80000019   5.97000027  52.47000122
H    24.38999939   7.60999966  49.19000244
H    23.92000008   8.51000023  50.59999847
S    13.02999973   4.57999992  47.90999985
C    10.40999985   4.32000017  48.67000198
C    11.64999962   4.80999994  49.00000000
C    12.02000046   5.42000008  50.25000000
C    10.95999908   5.60999966  51.11999893
C     9.68000031   5.07999992  50.81999969
C     8.65999985   5.21000004  51.79000092
C     7.36999989   4.74000025  51.62000275
C     7.05999947   3.95000005  50.47999954
C     8.01000023   3.91999984  49.48999786
C     9.35000038   4.40000010  49.59999847
C    13.45999908   5.59000015  50.38000107
C    14.11000061   5.13999987  49.20000076
C    15.48999977   5.13000011  49.05000305
C     5.69000006   3.33999991  50.27999878
H     5.29934406   3.47495365  49.27139664
H    10.21999931   3.74000025  47.77000046
H    11.16000080   5.93999958  52.14000320
H     8.82999992   5.52999973  52.81999969
H     6.57000017   4.92000008  52.31999969
H     7.86000013   3.33999991  48.57999802
H    15.97000027   4.76999998  48.15000153
H     5.03999996   3.78999996  51.04000092
H     5.79999971   2.27999997  50.52999878
