96

S    18.04999924   6.37000036  58.95999908
C    20.72000122   6.48999977  58.22000122
C    19.45999908   6.00000000  57.95999908
C    19.04999924   5.46999979  56.70000076
C    19.98999977   5.36999989  55.68999863
C    21.31999969   5.80999947  55.90999985
C    22.21999931   5.92999983  54.80999756
C    23.52000046   6.28000021  55.08999634
C    23.94000053   6.71000004  56.37000275
C    23.03999901   6.71000004  57.41000366
C    21.68999863   6.34000015  57.18999863
C    17.61000061   5.28999996  56.58000183
C    16.92000008   5.79999971  57.70999908
C    15.52999973   5.75000000  57.80000305
C    25.27000046   7.40999985  56.56999969
H    25.91493416   6.82885027  57.22910690
H    21.00000000   6.98999977  59.15000153
H    19.67000008   4.90000010  54.77000427
H    21.91999817   5.73000002  53.77999878
H    24.15999985   6.44000006  54.22999954
H    23.22999954   7.07999992  58.41999817
H    15.05000019   6.05000019  58.73000336
H    25.81000137   7.50999975  55.61999893
H    25.28000069   8.43000031  56.95999908
S    14.42000008   4.01999998  54.40000153
C    11.73999977   3.96000004  55.13000107
C    13.00000000   4.44999981  55.38000107
C    13.34000015   5.12000036  56.59999847
C    12.35999966   5.51000023  57.49000168
C    11.06999969   4.92999983  57.35000229
C    10.08999920   5.05999994  58.36999893
C     8.82000065   4.53000021  58.26000214
C     8.52999973   3.89999986  57.02999878
C     9.46000004   3.68000007  56.03000259
C    10.77999973   4.18000031  56.14999771
C    14.78000069   5.28999996  56.70999908
C    15.47000027   4.88000011  55.54000092
C    16.86000061   4.79999971  55.51000214
C     7.13999987   3.35999990  56.79999924
H     6.70631218   3.85767388  55.93262482
H    11.51000023   3.35999990  54.25000000
H    12.61999989   6.09000015  58.36999893
H    10.39999962   5.58000040  59.27000046
H     8.05000019   4.85000038  58.96999741
H     9.26000023   3.21000004  55.06999969
H    17.35999870   4.25000000  54.72000122
H     6.58999968   3.48000002  57.75000000
H     7.21000004   2.27999997  56.60999680
S    18.05999947   6.65999985  52.81999969
C    20.72000122   6.83000040  51.84999847
C    19.44000053   6.34000015  51.75000000
C    18.97999954   5.88999987  50.47000122
C    19.81999969   5.84000015  49.36999893
C    21.18000031   6.19000006  49.48999786
C    22.11000061   6.11999989  48.41999817
C    23.35000038   6.67999983  48.59000397
C    23.78999901   7.23000002  49.81999969
C    22.96999931   7.17000008  50.91999817
C    21.63000107   6.71000004  50.76000214
C    17.53000069   5.73999977  50.41999817
C    16.87000084   6.12999964  51.60999680
C    15.50000000   5.98000002  51.75000000
C    25.15999985   7.82999992  50.00999832
H    25.68773079   7.13111305  50.65896606
H    21.00000000   7.32999992  52.77000046
H    19.57999992   5.33999968  48.43000031
H    21.70000076   5.65000010  47.51999664
H    23.90000153   6.89000034  47.67000198
H    23.26000023   7.46000004  51.93000031
H    15.05000019   5.98000002  52.74000168
H    25.69000053   8.22000027  49.13000107
H    25.03999901   8.75000000  50.59999847
S    14.21000004   4.61999989  48.22000122
C    11.57999992   4.15999985  49.18000031
C    12.82999992   4.71000004  49.33000183
C    13.26000023   5.25000000  50.58000183
C    12.31999969   5.56999969  51.55000305
C    10.98999977   5.09999990  51.44000244
C    10.03999901   5.17000008  52.50000000
C     8.76999950   4.67999983  52.28000259
C     8.34000015   4.28000021  50.98999786
C     9.27999973   4.09000015  50.00000000
C    10.65999985   4.35999966  50.24000168
C    14.67000008   5.60999966  50.68000031
C    15.29999924   5.28999996  49.45999908
C    16.69000053   5.22000027  49.43000031
C     6.89000034   3.96000004  50.73999786
H     6.54104090   4.13091850  49.72161102
H    11.30000019   3.65000010  48.26000214
H    12.65999985   6.02999973  52.47000122
H    10.29000092   5.66999960  53.43000031
H     8.10000038   4.80999994  53.11999893
H     8.97999954   3.68999982  49.03999710
H    17.17000008   4.81999969  48.54000092
H     6.19999981   4.41000032  51.46999741
H     6.75000000   2.89000010  50.96000290
