96

S    17.60000038   6.17000008  58.48999786
C    20.27000046   6.19000006  57.83000183
C    19.00000000   5.79999971  57.47000122
C    18.53999901   5.32000017  56.19999695
C    19.51000023   5.15999985  55.22999573
C    20.86000061   5.42000008  55.56999969
C    21.84999847   5.28999996  54.54999924
C    23.19000053   5.51999998  54.77000427
C    23.61000061   5.86999989  56.06999969
C    22.65000153   6.21000004  57.00000000
C    21.25999832   5.98000002  56.83000183
C    17.09000015   5.36000013  56.06999969
C    16.39999962   5.75999975  57.23999786
C    15.01999950   5.86000013  57.35000229
C    25.02000046   6.19000006  56.52000046
H    25.38209724   5.63620329  57.38619614
H    20.55999947   6.40999985  58.85000229
H    19.23999977   4.92000008  54.20000076
H    21.61000061   4.86000013  53.57999802
H    23.94000053   5.55999994  53.99000168
H    22.88999939   6.77999973  57.88999939
H    14.45000076   6.02999973  58.26000214
H    25.65000153   6.02999973  55.63999939
H    25.12000084   7.26000023  56.72999954
S    13.81999969   4.79999971  53.68999863
C    11.14999962   4.72000027  54.43999863
C    12.43999958   5.05000019  54.78000259
C    12.84000015   5.44000053  56.10000229
C    11.84000015   5.59000015  57.04000092
C    10.50000000   5.26000023  56.75000000
C     9.46000004   5.31000042  57.71999741
C     8.11999989   5.22000027  57.43000031
C     7.76999998   4.81999969  56.11999893
C     8.75000000   4.65999985  55.17000198
C    10.13000011   4.92999983  55.40000153
C    14.27999973   5.58000040  56.18999863
C    14.94999981   5.21000004  54.99000168
C    16.34000015   5.19999981  54.89999771
C     6.38000011   4.26000023  55.89000320
H     5.98084116   4.74469328  54.99902344
H    10.84000015   4.30000019  53.47999954
H    11.98999977   6.10000038  57.98999786
H     9.81999969   5.68000031  58.68000031
H     7.40000010   5.05000019  58.22999954
H     8.34999943   4.23000002  54.25000000
H    16.87999916   5.05000019  53.97999573
H     5.69000006   4.55000019  56.69000244
H     6.28000021   3.17000008  55.83000183
S    14.51000023   2.66000009  50.93000031
C    11.90999985   1.86000001  51.63000107
C    13.26000023   1.86000001  51.90999985
C    13.81000042   1.28000009  53.09999847
C    12.92000008   0.69999999  53.97999573
C    11.51999950   0.82000005  53.81999969
C    10.52000046   0.34000003  54.71000290
C     9.15999985   0.50000000  54.55999756
C     8.67999935   1.11000001  53.36999893
C     9.59000015   1.57000005  52.44999695
C    11.00000000   1.44999993  52.63000107
C    15.24000072   1.51999998  53.22999954
C    15.75000000   2.28999996  52.15999985
C    17.05000114   2.76999998  52.18000031
C     7.23000002   1.43999994  53.09999847
H     6.80154991   0.78304309  52.34307098
H    11.56000042   2.30999994  50.70000076
H    13.35000038   0.25999999  54.86999893
H    10.86999989  -0.08000001  55.65000153
H     8.46000004   0.28000000  55.34999847
H     9.34000015   2.01999998  51.50000000
H    17.50000000   3.25999999  51.31000137
H     6.70000029   1.35000002  54.06000137
H     7.23000002   2.48000002  52.76000214
S    18.68000031   0.90000004  55.31999969
C    21.27000046   1.36999989  54.52999878
C    19.93000031   1.58000004  54.27000046
C    19.37000084   2.36000013  53.20000076
C    20.38999939   2.86000013  52.41000366
C    21.77999878   2.61999989  52.50000000
C    22.76000023   3.28999996  51.70999908
C    24.07999992   3.30000019  52.08000183
C    24.54999924   2.71000004  53.27999878
C    23.62999916   1.98000002  53.99000168
C    22.25000000   1.87999988  53.64999771
C    17.92000008   2.33999991  53.18999863
C    17.42000008   1.51999998  54.22999954
C    16.10000038   1.08999991  54.25000000
C    25.89999962   3.03999996  53.88999939
H    26.17129326   2.43316078  54.75385666
H    21.47999954   0.79000002  55.43000031
H    20.10999870   3.61999989  51.69000244
H    22.30999947   3.93000007  50.96000290
H    24.73999977   4.00000000  51.56000137
H    23.88999939   1.50000000  54.93000031
H    15.76000023   0.39000002  55.01999664
H    25.65999985   4.01999998  54.31000137
H    26.56999969   3.17000008  53.02999878
