96

S    17.78000069   6.21000004  58.68999863
C    20.45000076   6.34999990  57.94000244
C    19.18000031   5.91000032  57.64999771
C    18.76000023   5.38000011  56.38999939
C    19.75000000   5.27999973  55.43000031
C    21.07999992   5.75999975  55.58000183
C    22.09000015   5.66999960  54.58000183
C    23.36000061   6.12999964  54.79999924
C    23.61999893   6.81999969  56.02000427
C    22.69000053   6.86999989  57.02999878
C    21.38999939   6.30000019  56.88000107
C    17.30999947   5.42000008  56.20999908
C    16.63999939   5.73000002  57.41000366
C    15.25000000   5.82000017  57.41000366
C    25.06000137   7.22000027  56.23000336
H    25.50680542   6.55333900  56.96758652
H    20.75000000   6.76999998  58.89999771
H    19.55000114   4.86000013  54.45000076
H    21.80999947   5.27999973  53.60000229
H    24.05999947   6.11999989  53.96999741
H    22.86999893   7.21000004  58.04999924
H    14.93999958   6.15000010  58.40000153
H    25.53999901   7.30999994  55.25000000
H    25.07999802   8.21000004  56.70000076
S    14.14999962   4.73000002  53.70999908
C    11.39999962   4.65999985  54.47999954
C    12.72999954   4.81999969  54.77000427
C    13.12999916   5.26999998  56.06999969
C    12.10999966   5.58000040  56.95000076
C    10.73999977   5.33999968  56.72000122
C     9.76000023   5.59000015  57.71999741
C     8.45000076   5.32000017  57.43000031
C     8.10000038   4.67999983  56.20999908
C     8.97000027   4.67000008  55.13999939
C    10.34999943   4.86000013  55.41999817
C    14.56999969   5.46000004  56.25000000
C    15.24000072   5.21000004  55.02999878
C    16.62999916   5.25000000  55.00000000
C     6.74000025   4.07000017  55.97999954
H     6.16903925   4.65523434  55.25916290
H    11.09000015   4.42000008  53.46000290
H    12.31999969   6.07999992  57.88999939
H    10.06000042   5.98999977  58.68999863
H     7.59999990   5.55000019  58.06999969
H     8.65999985   4.28999996  54.16999817
H    17.22999954   4.90999985  54.15999985
H     6.17999983   3.86000013  56.90000153
H     6.94000006   3.05999994  55.58000183
S    18.52000046   6.80000019  52.36999893
C    21.12999916   7.03999996  51.50000000
C    19.86999893   6.54999971  51.25000000
C    19.48999977   6.01000023  49.98000336
C    20.43999863   5.84999990  48.99000168
C    21.75000000   6.34999990  49.16999817
C    22.79999924   6.23000050  48.20999908
C    24.02000046   6.80999994  48.41999817
C    24.28999901   7.50999975  49.62999725
C    23.38000107   7.44999981  50.65999985
C    22.06999969   6.94999981  50.44000244
C    18.04000092   5.96000004  49.88999939
C    17.38999939   6.46000004  51.04999924
C    16.01000023   6.63000011  51.10000229
C    25.75000000   7.73999977  49.93999863
H    26.17625999   6.94431496  50.55097198
H    21.38000107   7.60999966  52.38999939
H    20.13999939   5.42000008  48.02999878
H    22.59000015   5.68000031  47.29999924
H    24.86999893   6.56000042  47.78999710
H    23.72999954   7.78999996  51.63000107
H    15.57999992   7.11000013  51.97999954
H    26.25999832   8.00000000  49.01000214
H    25.94000053   8.64999962  50.52999878
S    14.70999908   5.36999989  47.56000137
C    12.01000023   5.35000038  48.40999985
C    13.32999992   5.65999985  48.62999725
C    13.76000023   6.15000010  49.91000366
C    12.76000023   6.61000013  50.75000000
C    11.39000034   6.35999966  50.54999924
C    10.34999943   6.54999971  51.50000000
C     9.11999989   5.93999958  51.40999603
C     8.84000015   5.00999975  50.37000275
C     9.75000000   4.92000008  49.34000015
C    11.02000046   5.56999969  49.40999985
C    15.19999981   6.15999985  50.06000137
C    15.85000038   5.77000046  48.86000061
C    17.22999954   5.59000015  48.81000137
C     7.46000004   4.42999983  50.13999939
H     6.86420965   5.00451183  49.43072510
H    11.77999973   4.73000002  47.55000305
H    13.07000065   7.02000046  51.70999908
H    10.50000000   7.14999962  52.39999771
H     8.27999973   6.28000021  52.01000214
H     9.55999947   4.41000032  48.40999985
H    17.72999954   5.17000008  47.94000244
H     6.98000002   4.39000034  51.11999893
H     7.62000036   3.38999987  49.82999802
