96

S    17.87999916   6.10000038  58.57999802
C    20.56999969   6.34999990  57.91999817
C    19.29999924   5.97000027  57.52999878
C    18.90999985   5.42999983  56.25999832
C    19.93000031   5.19000006  55.35999680
C    21.24000168   5.59999990  55.68999863
C    22.23999977   5.50000000  54.68000031
C    23.54000092   5.89999962  54.91000366
C    23.85999870   6.58999968  56.10000229
C    22.88000107   6.78999996  57.04999924
C    21.57999992   6.24000025  56.93000031
C    17.48999977   5.15999985  56.11000061
C    16.79999924   5.56999969  57.28000259
C    15.42000008   5.73999977  57.32999802
C    25.31999969   6.88000011  56.38999939
H    25.76043129   6.22645664  57.14299393
H    20.72000122   6.98999977  58.79000092
H    19.68000031   4.88000011  54.34000015
H    21.88999939   5.35000038  53.66000366
H    24.28999901   5.73999977  54.15000153
H    23.12000084   7.17999983  58.04000092
H    14.98000050   6.06999969  58.26000214
H    25.86000061   6.90000010  55.44000244
H    25.42000008   7.86999989  56.84999847
S    14.25000000   4.34999990  53.83999634
C    11.52999973   4.32000017  54.61000061
C    12.84999943   4.57999992  54.91000366
C    13.22999954   5.07000017  56.19999695
C    12.27000046   5.32000017  57.15999985
C    10.88999939   5.12000036  56.90999985
C     9.85999966   5.40000010  57.84999847
C     8.56000042   5.10999966  57.50999832
C     8.25000000   4.41000032  56.31000137
C     9.22999954   4.15999985  55.38000107
C    10.57000065   4.57999992  55.61999893
C    14.67000008   5.28999996  56.24000168
C    15.39000034   4.82999992  55.11000061
C    16.77999878   4.77999973  54.95999908
C     6.84999990   3.86000013  56.20999908
H     6.37212801   4.32360744  55.34697723
H    11.21999931   3.84999990  53.68000031
H    12.48000050   5.65999985  58.16999817
H    10.08999920   5.93999958  58.75999832
H     7.73999977   5.26999998  58.20999908
H     9.07999992   3.51000023  54.52000046
H    17.19000053   4.48000002  54.00000000
H     6.35999966   3.98999977  57.18000031
H     6.98000002   2.76999998  56.14999771
S    18.44000053   6.63999987  52.63999939
C    21.09999847   7.13000011  51.81000137
C    19.85999870   6.57999992  51.56999969
C    19.45000076   6.11000013  50.27999878
C    20.43999863   5.79999971  49.36999893
C    21.78999901   6.09000015  49.65999985
C    22.81999969   5.92999983  48.68999863
C    24.11999893   6.17999983  49.06999969
C    24.44999886   6.94000006  50.22999573
C    23.45999908   7.17000008  51.14999771
C    22.11999893   6.74000025  50.90000153
C    18.02000046   5.84999990  50.15999603
C    17.30999947   6.25000000  51.32999802
C    15.93000031   6.34000015  51.36000061
C    25.79999924   7.60999966  50.34000015
H    26.49444199   7.07145262  50.98484039
H    21.32999802   7.57999992  52.77000046
H    20.23999977   5.32999992  48.40999985
H    22.50000000   5.60999966  47.70999908
H    24.87999916   6.17000008  48.29999924
H    23.64999962   7.73000002  52.05999756
H    15.44999981   6.84000015  52.19999695
H    26.18000031   7.86999989  49.34000015
H    25.55000114   8.56999969  50.79999924
S    14.78000069   4.88000011  47.88999939
C    12.07999992   4.67000008  48.69999695
C    13.36999989   5.09000015  48.95000076
C    13.76000023   5.75000000  50.15999603
C    12.72999954   6.07999992  51.03000259
C    11.38000011   5.73000002  50.84000015
C    10.29999924   5.98999977  51.72999954
C     9.02000046   5.51999998  51.55000305
C     8.75000000   4.71000004  50.41999817
C     9.72999954   4.53999996  49.45999908
C    11.05999947   5.00000000  49.62999725
C    15.19999981   5.84000015  50.27000046
C    15.93000031   5.36999989  49.15000153
C    17.31999969   5.42999983  49.02999878
C     7.40999985   4.03999996  50.24000168
H     6.82615376   4.56688499  49.48527145
H    11.82999992   3.98000002  47.90999985
H    12.90999985   6.63000011  51.95000076
H    10.48999977   6.51000023  52.67000198
H     8.31999969   5.60999966  52.36999893
H     9.55999947   3.86999989  48.62999725
H    17.82999992   5.03000021  48.15999985
H     6.90999985   4.00999975  51.22000122
H     7.57999992   2.98000002  50.02999878
