96

S    17.50000000   5.82999992  59.01000214
C    20.13000107   6.01000023  58.20999908
C    18.88000107   5.52999973  57.93000031
C    18.50000000   4.90999985  56.70000076
C    19.52999878   4.63999987  55.80999756
C    20.82999992   5.14999962  56.04999924
C    21.84000015   5.22000027  55.05000305
C    23.11000061   5.69000006  55.28999710
C    23.45999908   6.19999981  56.56999969
C    22.47999954   6.34000015  57.52999878
C    21.18000031   5.82999992  57.27000427
C    17.05000114   4.94999981  56.56000137
C    16.38000107   5.51000023  57.67000198
C    15.01999950   5.82999992  57.61000061
C    24.84999847   6.70000029  56.88000107
H    25.35675812   6.05049133  57.59374619
H    20.27000046   6.74000025  59.00000000
H    19.36000061   4.18000031  54.84000397
H    21.51000023   4.92999983  54.06000137
H    23.82999802   5.91000032  54.51000214
H    22.62000084   6.97000027  58.40000153
H    14.53999996   6.19000006  58.50999832
H    25.48999977   6.70000029  55.97999954
H    24.67000008   7.72000027  57.25999832
S    13.83999920   4.25000000  54.19000244
C    11.16000080   4.11999989  55.07999802
C    12.46000099   4.55000019  55.26000214
C    12.84000015   5.14999962  56.50000000
C    11.84999943   5.42000008  57.43000031
C    10.50000000   5.00999975  57.25000000
C     9.52000046   5.14999962  58.27999878
C     8.23999977   4.74000025  58.02999878
C     7.83999968   4.03999996  56.84999847
C     8.82000065   3.81999993  55.90000153
C    10.15999985   4.25000000  56.07999802
C    14.27999973   5.33999968  56.52999878
C    14.98999977   4.81999969  55.41999817
C    16.36999893   4.67000008  55.37000275
C     6.44999981   3.52999973  56.56999969
H     5.88782549   4.02812910  55.78010941
H    10.92000008   3.58000016  54.16999817
H    12.15999985   5.80999947  58.40000153
H     9.72999954   5.65000010  59.22000122
H     7.53000021   5.03000021  58.80000305
H     8.67000008   3.31999993  54.94999695
H    16.90000153   4.28000021  54.50000000
H     5.86000013   3.61000013  57.50000000
H     6.60000038   2.46000004  56.42000198
S    14.47000027   2.14000010  51.26999664
C    11.84000015   1.70000005  52.15999985
C    13.19000053   1.49000001  52.31999969
C    13.80000019   0.69000000  53.33000183
C    12.96000004   0.08000001  54.23999786
C    11.56000042   0.23000000  54.10999680
C    10.65000057  -0.31000000  55.06000137
C     9.28999996  -0.14999999  54.94999695
C     8.73999977   0.51999998  53.81999969
C     9.55999947   1.13000000  52.90999985
C    10.98000050   1.00999999  53.04000092
C    15.21999931   0.99000001  53.52000427
C    15.73999977   1.74000001  52.43999863
C    17.06999969   2.16999984  52.43999863
C     7.26999998   0.88999999  53.85000229
H     6.75733232   0.34173071  53.05963898
H    11.40999985   2.27999997  51.35000229
H    13.48000050  -0.35999998  55.07999802
H    11.05000019  -0.67000002  56.00000000
H     8.67000008  -0.62000000  55.70000076
H     9.21000004   1.75000000  52.09000015
H    17.43999863   2.63000011  51.52999878
H     6.86999989   0.64999998  54.85000229
H     7.22000027   1.95999992  53.64999771
S    18.57999992   0.41999999  55.65000153
C    21.22999954   1.00000000  54.97000122
C    19.88999939   1.18000007  54.71000290
C    19.40999985   1.80999994  53.52000427
C    20.28000069   2.43000007  52.64999771
C    21.67000008   2.28999996  52.88999939
C    22.62000084   2.77999997  51.95000076
C    23.97000122   2.66999984  52.16999817
C    24.46000099   1.98000002  53.29999924
C    23.55999947   1.43000007  54.18000031
C    22.14999962   1.56000006  54.03999710
C    17.95999908   1.75000000  53.43000031
C    17.36999893   0.99000001  54.47999954
C    16.03000069   0.67000002  54.61000061
C    25.92000008   2.04999995  53.68000031
H    26.05558586   2.77074528  54.48637772
H    21.52000046   0.41000003  55.83000183
H    19.85999870   2.93000007  51.77999878
H    22.11000061   3.25999999  51.11999893
H    24.65999985   3.16000009  51.47999573
H    23.95000076   0.96000004  55.07999802
H    15.67000008   0.06000000  55.44000244
H    26.52000046   2.27999997  52.77999878
H    26.14999962   1.00000000  53.89999771
