96

S    17.12000084   6.43000031  58.46000290
C    19.79999924   6.54999971  57.61000061
C    18.51000023   6.12999964  57.39999771
C    18.09999847   5.40999985  56.22000122
C    19.05999947   5.19999981  55.25000000
C    20.40999985   5.58000040  55.44000244
C    21.42999840   5.19999981  54.52999878
C    22.75000000   5.56999969  54.68000031
C    23.12000084   6.21999979  55.87999725
C    22.19000053   6.52999973  56.84999847
C    20.81000137   6.23000050  56.65999985
C    16.67000008   5.14999962  56.17000198
C    16.00000000   5.73999977  57.27000427
C    14.61999989   5.73999977  57.41000366
C    24.53000069   6.71000004  56.12999725
H    25.11889648   5.95791483  56.65504074
H    20.20000076   6.93000031  58.54999924
H    18.78000069   4.55000019  54.41999817
H    21.11000061   4.77999973  53.56999969
H    23.52000046   5.51000023  53.90999603
H    22.46999931   6.93000031  57.81999969
H    14.22999954   6.10000038  58.36000061
H    24.93000031   6.77999973  55.11000061
H    24.53000069   7.69000006  56.60999680
S    13.35000038   4.21000004  54.01000214
C    10.67999935   4.03999996  54.84000397
C    11.96000004   4.48999977  55.07999802
C    12.38999939   5.05999994  56.31999969
C    11.40999985   5.33999968  57.25999832
C    10.10000038   4.82999992  57.11000061
C     9.19999981   4.71000004  58.20999908
C     7.99000025   4.05999994  58.09000015
C     7.63999987   3.40000010  56.88000107
C     8.45000076   3.55999994  55.77999878
C     9.72000027   4.19999981  55.87999725
C    13.83999920   5.13000011  56.43000031
C    14.51000023   4.59000015  55.30000305
C    15.88999939   4.53000021  55.18000031
C     6.34000015   2.64999986  56.81000137
H     5.62926483   3.19015837  56.18455505
H    10.46000004   3.37000012  54.02000046
H    11.82999992   5.59000015  58.22999954
H     9.56999969   5.03999996  59.16999817
H     7.46999979   3.81999993  59.01000214
H     8.23999977   3.12000012  54.80999756
H    16.39000130   4.28000021  54.25000000
H     5.92999983   2.46000004  57.81000137
H     6.44999981   1.64000010  56.38999939
S    13.40000057   2.16000009  51.32999802
C    10.93000031   1.13999999  52.05999756
C    12.28999996   1.16999996  52.28000259
C    12.84999943   0.65999997  53.48999786
C    12.00000000   0.27000001  54.52000046
C    10.59999943   0.28999999  54.33000183
C     9.72000027  -0.29999998  55.28999710
C     8.38000011  -0.38000000  55.00000000
C     7.83999968   0.13000000  53.79000092
C     8.64999962   0.63000000  52.80000305
C    10.05000019   0.67000002  53.06000137
C    14.27999973   0.94999999  53.48999786
C    14.75000000   1.71000004  52.38999939
C    16.07999992   2.07999992  52.28000259
C     6.34000015   0.19000000  53.61000061
H     5.97922373  -0.76499587  53.22800064
H    10.64000034   1.36999989  51.03000259
H    12.44999981  -0.19000000  55.38999939
H    10.11999989  -0.65999997  56.23000336
H     7.69999981  -0.88999999  55.66999817
H     8.22000027   0.93000001  51.84000015
H    16.45000076   2.44000006  51.32999802
H     5.84000015   0.43000001  54.54999924
H     5.98999977   1.00000000  52.95999908
S    17.82999992   0.85000002  55.58000183
C    20.45999908   1.38999999  54.65000153
C    19.10000038   1.50000000  54.51000214
C    18.45000076   2.00000000  53.34000015
C    19.23999977   2.57999992  52.36999893
C    20.65000153   2.50000000  52.48000336
C    21.45000076   3.03999996  51.44000244
C    22.82999992   3.02999997  51.52000046
C    23.47999954   2.53999996  52.68000031
C    22.70999908   1.99000001  53.68999863
C    21.28999901   1.97000003  53.64999771
C    17.01000023   1.77999997  53.27999878
C    16.51000023   1.11000001  54.43000031
C    15.21000004   0.63000000  54.48999786
C    24.96000099   2.73999977  52.88000107
H    25.32980347   2.32752800  53.81872940
H    20.86000061   0.83999997  55.50000000
H    18.68000031   3.01999998  51.55000305
H    21.00000000   3.33999991  50.50000000
H    23.31999969   3.58000016  50.72999954
H    23.19999886   1.71000004  54.61999893
H    14.92000008   0.03000000  55.34999847
H    25.17999840   3.79999995  52.70999908
H    25.43999863   2.17999983  52.06999969
