96

S    18.12999916   6.51999998  58.81000137
C    20.79000092   6.70000029  58.06000137
C    19.52000046   6.28000021  57.72999573
C    19.13999939   5.82999992  56.42000198
C    20.07999802   5.61999989  55.43000031
C    21.38000107   6.03999996  55.77000046
C    22.44999886   5.98000002  54.82999802
C    23.69999886   6.50000000  55.06999969
C    24.04000092   7.09999990  56.31000137
C    23.05000114   7.17999983  57.25999832
C    21.77000046   6.60000038  57.04000092
C    17.70000076   5.65000010  56.35000229
C    17.00000000   6.03999996  57.52999878
C    15.62999916   6.24000025  57.63999939
C    25.42000008   7.63000011  56.62000275
H    25.93120003   7.01230192  57.35839462
H    21.02999878   7.09000015  59.03999710
H    19.93000031   5.40000010  54.36999893
H    22.26000023   5.38000011  53.94000244
H    24.54000092   6.42000008  54.38999939
H    23.26000023   7.63999987  58.22000122
H    15.11999989   6.57000017  58.53000259
H    26.09999847   7.62000036  55.76000214
H    25.42000008   8.67000008  56.97999954
S    14.44000053   4.98000002  54.03999710
C    11.78999996   4.77999973  54.72999954
C    13.02999973   5.26999998  55.07999802
C    13.38999939   5.72000027  56.38999939
C    12.35999966   5.84000015  57.30999756
C    11.05000019   5.38999987  57.00000000
C     9.96999931   5.42000008  57.93000031
C     8.69000053   5.07000017  57.58999634
C     8.47999954   4.48999977  56.31000137
C     9.48999977   4.32999992  55.38999939
C    10.75000000   4.92999983  55.66999817
C    14.82999992   5.82000017  56.56999969
C    15.50000000   5.35000038  55.41999817
C    16.87999916   5.31000042  55.26000214
C     7.09999990   3.93000007  56.03000259
H     6.60881948   4.42118073  55.19001389
H    11.64999962   4.15000010  53.86000061
H    12.69999981   6.09000015  58.30999756
H    10.22999954   5.84000015  58.89999771
H     7.90000010   5.15999985  58.33000183
H     9.36999989   3.70000005  54.52000046
H    17.38999939   5.01999950  54.34999847
H     6.48000002   3.98999977  56.93000031
H     7.11000013   2.87999988  55.72000122
S    18.11000061   7.02000046  52.61000061
C    20.81999969   7.30999994  51.77999878
C    19.54000092   6.83000040  51.58000183
C    19.18000031   6.23000050  50.33000183
C    20.15000153   6.15000010  49.34999847
C    21.42000008   6.75000000  49.52000046
C    22.42000198   6.76999998  48.50000000
C    23.68999863   7.21000004  48.81000137
C    24.11000061   7.77999973  50.04000092
C    23.15000153   7.73999977  51.02000427
C    21.80999947   7.34000015  50.77000046
C    17.73999977   6.07999992  50.20000076
C    17.00000000   6.47000027  51.33999634
C    15.60999966   6.44999981  51.39999771
C    25.55999947   8.03999996  50.38999939
H    25.92320251   7.39193583  51.18761826
H    20.93000031   7.82000017  52.72999573
H    19.86999893   5.71000004  48.39000320
H    22.25000000   6.25999975  47.56000137
H    24.47000122   7.03999996  48.08000183
H    23.45999908   8.13000011  51.98999786
H    15.01999950   6.67000008  52.28000259
H    26.12999916   7.92999983  49.45999908
H    25.58000183   9.11000061  50.65000153
S    14.52999973   4.94999981  47.88000107
C    11.82999992   4.78999996  48.79000092
C    13.14000034   5.17000008  48.96999741
C    13.48999977   5.78999996  50.20999908
C    12.56000042   5.92999983  51.23000336
C    11.18999958   5.69000006  51.00999832
C    10.17000008   5.82000017  52.00000000
C     8.88000011   5.51000023  51.63999939
C     8.55000019   4.81999969  50.45000076
C     9.51000023   4.67000008  49.47999954
C    10.82999992   5.14999962  49.72999954
C    14.93000031   6.01999998  50.25000000
C    15.65000057   5.55000019  49.13000107
C    17.04000092   5.51999998  49.13000107
C     7.17000008   4.21000004  50.30000305
H     6.60882998   4.70013571  49.50441742
H    11.52999973   4.03999996  48.06999969
H    12.89999962   6.23000050  52.22000122
H    10.52999973   6.05000019  53.00000000
H     8.10000038   5.61999989  52.39999771
H     9.35999966   4.05000019  48.60000229
H    17.59000015   5.32000017  48.20999908
H     6.57999992   4.28999996  51.22000122
H     7.23999977   3.14000010  50.08999634
