96

S    18.18000031   6.35999966  58.95000076
C    20.90999985   6.35999966  58.18000031
C    19.60000038   6.01000023  57.94000244
C    19.22999954   5.46000004  56.66999817
C    20.20999908   5.33999968  55.70000076
C    21.54999924   5.73999977  55.87999725
C    22.67000008   5.40999985  55.06000137
C    23.98999977   5.69000006  55.34999847
C    24.25000000   6.44000006  56.52999878
C    23.26999855   6.53999996  57.48000336
C    21.93000031   6.15999985  57.19999695
C    17.78000069   5.36999989  56.56000137
C    17.05999947   5.88000011  57.65999603
C    15.69000053   6.11999989  57.68000031
C    25.65999985   6.88000011  56.86000061
H    26.09297943   6.21278763  57.60528946
H    21.19999886   6.77999973  59.13000107
H    20.03999901   4.69000006  54.85000229
H    22.36999893   4.88000011  54.16999817
H    24.84000015   5.51000023  54.69999695
H    23.57999992   7.00999975  58.41999817
H    15.18000031   6.51000023  58.55999756
H    26.22999954   6.86999989  55.91999817
H    25.76999855   7.88999987  57.28000259
S    14.57999992   4.41000032  54.25000000
C    11.94000053   4.26999998  54.86999893
C    13.15999985   4.79999971  55.24000168
C    13.50000000   5.29999971  56.53999710
C    12.44999981   5.49000025  57.42000198
C    11.13000011   5.10999966  57.05999756
C    10.01000023   5.42000008  57.88000107
C     8.73999977   5.03999996  57.50000000
C     8.52999973   4.21000004  56.37000275
C     9.57999992   4.00000000  55.50000000
C    10.88999939   4.46999979  55.79999924
C    14.93000031   5.52999973  56.66999817
C    15.62999916   4.98000002  55.56000137
C    17.02000046   4.86999989  55.48999786
C     7.14999962   3.63000011  56.16000366
H     6.52241516   4.20053148  55.47536469
H    11.92000008   3.63999987  53.99000168
H    12.50000000   5.80999947  58.46000290
H    10.21000004   5.96000004  58.80000305
H     7.90000010   5.35000038  58.11999893
H     9.36999989   3.42999983  54.59999847
H    17.38000107   4.30000019  54.64000320
H     6.69000053   3.63000011  57.15000153
H     7.23000002   2.61999989  55.72999954
S    18.27999878   6.48999977  52.85999680
C    20.95000076   6.67999983  51.98999786
C    19.64999962   6.26999950  51.76000214
C    19.20999908   5.79999971  50.47999954
C    20.15999985   5.55000019  49.50000000
C    21.50000000   5.98000002  49.71000290
C    22.46999931   5.82999992  48.68000031
C    23.71999931   6.40999985  48.77999878
C    24.10000038   7.05999947  49.98000336
C    23.22999954   7.07999992  51.04999924
C    21.90000153   6.60000038  50.93999863
C    17.76000023   5.77000046  50.38000107
C    17.11000061   6.21999979  51.55000305
C    15.72999954   6.34000015  51.65999985
C    25.53999901   7.40999985  50.27999878
H    26.12293816   6.72753429  50.89848328
H    21.31999969   7.09999990  52.91999817
H    19.82999992   5.19000006  48.54000092
H    22.15999985   5.23000002  47.83000183
H    24.47000122   6.25000000  48.01000214
H    23.47999954   7.42000008  52.04999924
H    15.34999943   6.71999979  52.60000229
H    26.11999893   7.63000011  49.38000107
H    25.59000015   8.36999989  50.79999924
S    14.53999996   4.61000013  48.26000214
C    11.87000084   4.44999981  49.09000015
C    13.15000057   4.86999989  49.34000015
C    13.52000046   5.59999990  50.52000046
C    12.58999920   5.80999947  51.52000046
C    11.31999969   5.19999981  51.37000275
C    10.34000015   5.45000029  52.36000061
C     9.01000023   5.14999962  52.12999725
C     8.64000034   4.50000000  50.93000031
C     9.56999969   4.13000011  49.99000168
C    10.92000008   4.56999969  50.13000107
C    14.93000031   5.93999958  50.58000183
C    15.59000015   5.40999985  49.45000076
C    16.97000122   5.28999996  49.33000183
C     7.18999958   4.19999981  50.61000061
H     6.88377857   4.57743597  49.63436127
H    11.59999943   3.96000004  48.15000153
H    12.79000092   6.37000036  52.43000031
H    10.59999943   5.93999958  53.29999924
H     8.28999996   5.50000000  52.85999680
H     9.25000000   3.75000000  49.02000046
H    17.40999985   4.90999985  48.40999985
H     6.61000013   4.59999990  51.45000076
H     7.07000017   3.10999990  50.61000061
