96

S    18.04999924   6.37000036  58.79000092
C    20.76000023   6.46000004  58.06999969
C    19.47999954   6.05999994  57.77999878
C    19.12999916   5.45000029  56.53999710
C    20.15999985   5.19000006  55.63999939
C    21.47999954   5.59999990  55.90999985
C    22.43000031   5.53999996  54.85000229
C    23.69999886   6.03999996  55.00999832
C    24.10000038   6.50000000  56.29000092
C    23.13999939   6.76999998  57.23999786
C    21.80000114   6.32000017  57.11000061
C    17.69000053   5.33999968  56.35000229
C    16.98999977   5.75000000  57.50999832
C    15.59999943   5.80999947  57.57999802
C    25.55999947   6.88000011  56.45000076
H    25.97907448   6.36858606  57.31656265
H    20.95000076   6.83000040  59.08000183
H    19.97999954   4.76000023  54.65999985
H    22.23999977   4.97000027  53.95000076
H    24.46000099   5.98999977  54.22999954
H    23.36999893   7.23000002  58.20000076
H    15.19999981   6.21000004  58.50999832
H    26.12999916   6.61000013  55.54999924
H    25.62000084   7.96999979  56.47999573
S    14.48999977   4.36999989  54.02999878
C    11.82000065   4.42000008  54.77000427
C    13.12000084   4.73000002  55.10000229
C    13.43999958   5.44000053  56.30000305
C    12.39999962   5.73999977  57.16999817
C    11.05999947   5.38999987  56.90999985
C    10.01999950   5.75999975  57.81000137
C     8.76000023   5.28999996  57.51999664
C     8.47000027   4.46999979  56.38999939
C     9.47000027   4.15000010  55.51000214
C    10.80000019   4.59000015  55.73999786
C    14.88999939   5.42000008  56.44000244
C    15.57999992   4.90999985  55.31999969
C    16.95999908   4.79999971  55.27999878
C     7.11999989   3.79999995  56.22000122
H     6.50715017   4.31308365  55.47888184
H    11.59999943   3.95000005  53.81000137
H    12.65999985   6.23000050  58.09999847
H    10.27999973   6.19999981  58.76999664
H     7.96999979   5.36999989  58.26000214
H     9.35999966   3.42999983  54.69999695
H    17.38000107   4.19999981  54.47999954
H     6.60000038   3.76999998  57.18999863
H     7.40999985   2.79000020  55.90999985
S    14.91000080   2.57999992  50.94999695
C    12.25000000   1.99000001  51.66999817
C    13.59000015   1.95999992  51.97000122
C    14.09999943   1.25999999  53.11000061
C    13.17000008   0.79999995  54.01000214
C    11.77999973   0.97999996  53.80000305
C    10.80000019   0.59000003  54.75999832
C     9.46000004   0.61000001  54.45000076
C     8.94999981   1.14999998  53.23999786
C     9.86999989   1.61000001  52.32999802
C    11.26999950   1.53999996  52.57999802
C    15.53999996   1.42000008  53.29000092
C    16.10999870   2.05999994  52.15999985
C    17.46999931   2.32999992  52.06999969
C     7.49000025   1.48000002  53.04000092
H     7.08502769   0.85477978  52.24426270
H    11.87999916   2.38999987  50.72000122
H    13.50999928   0.28999999  54.91000366
H    11.13999939   0.20999999  55.72000122
H     8.78999996   0.19999999  55.20000076
H     9.56999969   2.01999998  51.36000061
H    17.92000008   2.86999989  51.24000168
H     6.93000031   1.29999995  53.96999741
H     7.42000008   2.53999996  52.77000046
S    19.01000023   0.82999998  55.45999908
C    21.63999939   1.29999995  54.52999878
C    20.28000069   1.43000007  54.38000107
C    19.70999908   2.00999999  53.20000076
C    20.56999969   2.57999992  52.28000259
C    21.97000122   2.50999975  52.38999939
C    22.86999893   3.19999981  51.52999878
C    24.18999863   3.37000012  51.90000153
C    24.68000031   2.79999995  53.11000061
C    23.88000107   2.02999997  53.92000198
C    22.50999832   1.90999997  53.59000397
C    18.25000000   1.94999993  53.15999985
C    17.73999977   1.33000004  54.33000183
C    16.38000107   1.03999996  54.34000015
C    26.07000160   3.17999983  53.56999969
H    26.47701836   2.58018398  54.38403702
H    22.01999855   1.00999999  55.51000214
H    20.17999840   3.09999990  51.39999771
H    22.44999886   3.75000000  50.70000076
H    24.76000023   4.05000019  51.27999878
H    24.23000145   1.71000004  54.89999771
H    15.90999985   0.65999997  55.25000000
H    26.04000092   4.23999977  53.87000275
H    26.68999863   3.08999991  52.67000198
