96

S    17.61000061   6.10000038  58.93000031
C    20.20999908   6.57000017  58.08000183
C    18.96999931   6.06999969  57.78999710
C    18.63000107   5.53999996  56.50000000
C    19.54000092   5.53999996  55.47000122
C    20.82999992   6.05000019  55.76000214
C    21.73000145   6.25999975  54.68000031
C    22.95000076   6.80999994  55.00000000
C    23.34000015   7.31999969  56.25999832
C    22.46999931   7.09000015  57.30999756
C    21.21999931   6.44999981  57.09000015
C    17.18000031   5.40999985  56.40999603
C    16.48999977   5.72000027  57.61000061
C    15.10000038   5.75999975  57.71999741
C    24.76000023   7.77999973  56.47999573
H    25.29283714   7.03402996  57.06966782
H    20.36000061   7.07999992  59.02999878
H    19.26000023   5.25000000  54.45999908
H    21.42999840   6.12999964  53.63999939
H    23.68999863   6.78999996  54.20000076
H    22.65000153   7.44000006  58.31999969
H    14.53999996   6.06999969  58.60000229
H    25.32999992   7.92999983  55.56000137
H    24.64999962   8.76999950  56.93000031
S    13.92000008   4.63000011  54.06000137
C    11.32999992   4.13999987  54.97000122
C    12.56999969   4.67999983  55.21999741
C    12.96000004   5.15999985  56.51000214
C    11.94000053   5.46000004  57.39999771
C    10.62999916   4.96000004  57.21000290
C     9.61999989   5.01999950  58.20000076
C     8.34999943   4.50000000  58.06999969
C     8.14999962   3.63999987  56.95999908
C     9.06999969   3.63000011  55.93999863
C    10.34999943   4.26000023  55.97999954
C    14.39000034   5.38999987  56.56999969
C    15.05000019   5.07999992  55.34999847
C    16.44000053   5.09000015  55.27000046
C     6.80999994   2.94999981  56.79000092
H     6.16942501   3.60481024  56.19924927
H    11.13999939   3.61999989  54.02999878
H    12.13999939   5.92999983  58.36000061
H     9.84000015   5.47999954  59.15999985
H     7.57000017   4.69000006  58.80000305
H     8.80000019   3.15000010  55.00000000
H    17.01000023   4.73000002  54.41999817
H     6.32999992   2.82999992  57.76000214
H     6.86999989   2.05999994  56.14999771
S    17.35000038   6.80999994  52.52999878
C    19.98999977   7.09999990  51.70999908
C    18.71999931   6.63999987  51.43000031
C    18.32999992   6.10000038  50.15999603
C    19.26000023   5.86999989  49.15999985
C    20.59000015   6.28000021  49.41999817
C    21.63000107   6.05999994  48.47000122
C    22.82999992   6.71000004  48.61999893
C    23.15999985   7.46000004  49.77000427
C    22.23999977   7.46000004  50.79000092
C    20.92000008   6.94000006  50.65000153
C    16.87999916   6.05999994  50.06000137
C    16.18999863   6.34000015  51.26999664
C    14.81999969   6.25000000  51.45000076
C    24.56999969   7.92999983  50.05000305
H    25.05161285   7.43422079  50.89282608
H    20.20000076   7.59000015  52.65999603
H    19.09000015   5.38000011  48.20999908
H    21.45999908   5.38999987  47.63000107
H    23.62999916   6.60000038  47.88999939
H    22.53000069   7.90999985  51.72999954
H    14.37999916   6.57000017  52.38999939
H    25.22000122   7.60999966  49.22000122
H    24.54000092   9.02999973  49.98000336
S    13.53999996   5.35000038  47.81999969
C    10.85000038   5.15999985  48.73000336
C    12.17000008   5.50000000  48.93000031
C    12.57999992   5.80999947  50.27000046
C    11.69999981   5.86000013  51.32999802
C    10.39000034   5.35000038  51.16000366
C     9.48000050   5.17000008  52.23999786
C     8.23999977   4.59000015  52.06999969
C     7.85000038   4.13999987  50.77999878
C     8.69999981   4.34999990  49.72000122
C     9.98999977   4.94000006  49.84000397
C    14.02999973   5.88999987  50.34999847
C    14.70000076   5.71000004  49.10999680
C    16.06999969   5.84999990  48.94000244
C     6.39999962   3.77999997  50.56000137
H     5.89489460   4.45584488  49.86992645
H    10.40999985   4.73000002  47.84000015
H    12.23000050   6.03999996  52.25999832
H     9.78999996   5.58000040  53.20000076
H     7.49000025   4.67000008  52.84000015
H     8.27000046   4.23000002  48.73000336
H    16.54000092   5.59999990  47.98999786
H     5.92999983   3.86000013  51.55000305
H     6.40999985   2.75999999  50.17000198
