96

S    17.46000099   6.53999996  58.64999771
C    20.09000015   7.07999992  57.81999969
C    18.85000038   6.54999971  57.54000092
C    18.50000000   5.92999983  56.30000305
C    19.44000053   5.97000027  55.28999710
C    20.68000031   6.61999989  55.47000122
C    21.71999931   6.48000002  54.50000000
C    22.93000031   7.11000013  54.65999985
C    23.23999786   7.64999962  55.93999863
C    22.36000061   7.59999990  56.98999786
C    21.05999947   7.04999971  56.79000092
C    17.06999969   5.65999985  56.19999695
C    16.35000038   6.01000023  57.36999893
C    14.96999931   5.92999983  57.48000336
C    24.65999985   8.05000019  56.25000000
H    25.03057480   7.41574383  57.05529022
H    20.22999954   7.63999987  58.74000168
H    19.19000053   5.51000023  54.33000183
H    21.44000053   5.97000027  53.59000397
H    23.67000198   7.07999992  53.87000275
H    22.62000084   7.90999985  58.00000000
H    14.50000000   6.05999994  58.44999695
H    25.31999969   7.85000038  55.38999939
H    24.77000046   9.11000061  56.49000168
S    13.78000069   4.72000027  53.89999771
C    11.06999969   4.55000019  54.68999863
C    12.35999966   4.97000027  54.93000031
C    12.77999973   5.51000023  56.18999863
C    11.87000084   5.69000006  57.22000122
C    10.55999947   5.19999981  57.02000046
C     9.55999947   5.32000017  58.02999878
C     8.27999973   4.81999969  57.91999817
C     7.88999987   4.21000004  56.70000076
C     8.78000069   4.23000002  55.65000153
C    10.14000034   4.65000010  55.75000000
C    14.22999954   5.59000015  56.33999634
C    14.93000031   5.19999981  55.17000198
C    16.31999969   5.19000006  55.12000275
C     6.51999998   3.58000016  56.65000153
H     5.91173506   4.09631777  55.90735245
H    10.90999985   4.05999994  53.74000168
H    12.20999908   6.17999983  58.13000107
H     9.82999992   5.82000017  58.95999908
H     7.57999992   4.86000013  58.74000168
H     8.45000076   4.00000000  54.65000153
H    16.80999947   4.82999992  54.22999954
H     6.11000013   3.51999998  57.65999603
H     6.71999979   2.54999995  56.31999969
S    17.59000015   6.96000004  52.27000427
C    20.25000000   7.25000000  51.45999908
C    19.00000000   6.72999954  51.22000122
C    18.63999939   6.17999983  49.94999695
C    19.67000008   6.03999996  49.02999878
C    20.95999908   6.58999968  49.20999908
C    22.00000000   6.54999971  48.23999786
C    23.22000122   7.14999962  48.43999863
C    23.45999908   7.82000017  49.66999817
C    22.55000114   7.79999971  50.68999863
C    21.27000046   7.21000004  50.47000122
C    17.19000053   6.07999992  49.85000229
C    16.45000076   6.44999981  51.00000000
C    15.06999969   6.44999981  51.14999771
C    24.89999962   8.11999989  50.01999664
H    25.39138985   7.40071917  50.67518616
H    20.39999962   7.86999989  52.32999802
H    19.60000038   5.59999990  48.04000092
H    21.77000046   6.10000038  47.28000259
H    24.01000023   7.09999990  47.70000076
H    22.75000000   8.13000011  51.70999908
H    14.63999939   6.63000011  52.12999725
H    25.43999863   8.19999981  49.06000137
H    25.02000046   9.10000038  50.51000214
S    13.81999969   5.05999994  47.65999603
C    11.18000031   4.75000000  48.55999756
C    12.48000050   5.12000036  48.81999969
C    12.90999985   5.58000040  50.11000061
C    11.92999935   5.77000046  51.05999756
C    10.62999916   5.23999977  50.87999725
C     9.59999943   5.51999998  51.81000137
C     8.32999992   5.00999975  51.65000153
C     8.00000000   4.34999990  50.44000244
C     8.90999985   4.19999981  49.40999985
C    10.22999954   4.67999983  49.61000061
C    14.30999947   5.98999977  50.06999969
C    14.98000050   5.65999985  48.86000061
C    16.36000061   5.78999996  48.76999664
C     6.61000013   3.81999993  50.19000244
H     6.12555647   4.34006453  49.36359787
H    10.98000050   4.23999977  47.62000275
H    12.06999969   6.44000006  51.90000153
H     9.86999989   5.98999977  52.76000214
H     7.55000019   5.18000031  52.38999939
H     8.47999954   3.81000018  48.48999786
H    16.77000046   5.61999989  47.77000046
H     5.84000015   3.95000005  50.96000290
H     6.65999985   2.77999997  49.84000397
