96

S    17.13000107   6.17000008  58.93000031
C    19.72999954   6.57000017  57.94000244
C    18.48999977   6.00000000  57.80000305
C    18.17000008   5.23999977  56.62000275
C    19.09000015   5.12000036  55.59999847
C    20.36000061   5.71000004  55.79000092
C    21.45000076   5.50000000  54.88999939
C    22.69000053   6.03999996  55.08999634
C    22.98999977   6.89000034  56.19999695
C    21.94999886   7.22000027  57.02999878
C    20.69000053   6.57999992  56.88999939
C    16.73999977   4.99000025  56.47999573
C    16.10999870   5.44000053  57.68000031
C    14.73000050   5.46000004  57.74000168
C    24.40999985   7.30999994  56.46999741
H    25.06933212   6.49469757  56.76776123
H    19.88000107   7.03999996  58.90999603
H    18.86000061   4.39000034  54.81999969
H    21.42999840   4.77999973  54.08000183
H    23.52000046   5.73999977  54.45999908
H    22.19000053   7.76999998  57.94000244
H    14.19999981   5.78000021  58.63999939
H    24.80999947   7.82000017  55.59000015
H    24.38999939   8.11999989  57.21000290
S    13.50000000   4.15999985  54.19000244
C    10.90999985   4.05999994  54.95999908
C    12.15999985   4.51999998  55.28999710
C    12.55000019   4.99000025  56.58000183
C    11.54999924   5.07000017  57.54000092
C    10.21999931   4.69000006  57.22000122
C     9.32999992   4.41000032  58.29000092
C     8.05999947   3.93000007  58.08000183
C     7.76000023   3.40000010  56.79000092
C     8.67000008   3.42000008  55.76000214
C     9.88000011   4.13999987  55.93000031
C    14.00000000   5.10999966  56.59999847
C    14.67000008   4.65999985  55.43000031
C    16.04999924   4.61999989  55.33000183
C     6.44999981   2.75000000  56.44000244
H     5.66385412   3.35908604  55.99380875
H    10.75000000   3.49000001  54.05000305
H    11.78999996   5.26999998  58.57999802
H     9.63999939   4.76999998  59.27000046
H     7.37999964   4.11000013  58.89999771
H     8.43999958   2.91000009  54.81999969
H    16.60000038   4.26000023  54.45999908
H     6.11000013   2.45000005  57.43999863
H     6.60000038   1.80000007  55.91999817
S    13.21000004   2.06999993  51.19999695
C    10.65000057   1.26999998  51.90000153
C    11.98999977   1.22000003  52.16999817
C    12.53000069   0.61000001  53.34999847
C    11.69999981  -0.14000000  54.15999985
C    10.31000042  -0.12000000  53.90999603
C     9.42000008  -0.63000000  54.88999939
C     8.06999969  -0.51999998  54.65999985
C     7.51999950   0.23000000  53.57999802
C     8.36000061   0.71999997  52.60000229
C     9.76000023   0.59000003  52.77999878
C    13.97999954   0.74000001  53.43000031
C    14.44000053   1.58000004  52.38999939
C    15.78999996   1.92000008  52.29000092
C     6.02999973   0.45000002  53.44999695
H     5.55099821  -0.02185267  52.59208679
H    10.36000061   1.87000012  51.04000092
H    12.18999958  -0.63000000  55.00000000
H     9.80000019  -1.02999997  55.83000183
H     7.42999983  -1.00999999  55.38999939
H     7.88999987   1.26999998  51.79000092
H    15.93999958   2.53999996  51.40999603
H     5.58000040   0.03000000  54.36000061
H     5.78000021   1.51999998  53.54000092
S    17.53000069   0.39000002  55.48999786
C    20.10000038   1.11000001  54.62999725
C    18.73999977   1.15999997  54.43999863
C    18.13999939   1.77999997  53.29000092
C    18.97999954   2.37000012  52.36999893
C    20.38000107   2.39999986  52.54000092
C    21.25000000   3.03999996  51.62000275
C    22.60999870   3.09999990  51.84999847
C    23.19000053   2.57999992  53.04000092
C    22.36999893   1.80999994  53.82999802
C    20.95000076   1.74000001  53.68999863
C    16.69999886   1.58000004  53.29000092
C    16.21999931   0.76999998  54.34999847
C    14.88999939   0.34999999  54.41999817
C    24.69000053   2.71000004  53.16999817
H    25.05979347   2.53221440  54.17982101
H    20.55000114   0.63000000  55.48999786
H    18.53999901   2.87999988  51.51000214
H    20.72999954   3.48000002  50.77000046
H    23.22000122   3.50000000  51.04999924
H    22.90999985   1.28999996  54.61999893
H    14.63000107  -0.25999999  55.27999878
H    25.05000114   3.63999987  52.71999741
H    25.10000038   1.87999988  52.58999634
