96

S    17.76000023   6.44999981  58.72000122
C    20.50000000   6.69000053  58.01000214
C    19.22999954   6.21000004  57.77000046
C    18.93000031   5.59999990  56.51000214
C    19.92000008   5.42999983  55.54999924
C    21.21999931   5.93999958  55.79000092
C    22.13999939   6.01999998  54.69999695
C    23.40999985   6.38999987  55.05000305
C    23.78000069   6.97000027  56.30000305
C    22.81999969   7.13000011  57.27000427
C    21.53000069   6.57000017  57.04999924
C    17.50000000   5.59000015  56.24000168
C    16.72999954   5.96000004  57.36999893
C    15.34999943   5.80999947  57.50000000
C    25.23999977   7.26000023  56.55000305
H    25.80122948   6.59220648  57.20358658
H    20.66999817   7.27999973  58.90999603
H    19.72999954   4.90999985  54.61999893
H    21.83000183   5.86999989  53.67000198
H    24.17000008   6.30000019  54.27999878
H    23.15000153   7.51999950  58.22999954
H    14.82999992   6.01000023  58.43000031
H    25.65000153   7.32999992  55.54000092
H    25.28000069   8.23000050  57.05999756
S    14.29999924   4.48000002  53.94000244
C    11.59000015   4.13999987  54.72999954
C    12.84999943   4.63999987  54.95999908
C    13.22999954   5.27999973  56.18000031
C    12.23999977   5.52999973  57.11000061
C    10.95000076   4.94999981  57.01000214
C     9.94999981   5.21000004  57.98999786
C     8.69000053   4.74000025  57.72999573
C     8.39999962   4.05000019  56.52000046
C     9.32999992   3.77999997  55.54000092
C    10.62999916   4.33999968  55.75000000
C    14.67000008   5.46000004  56.32999802
C    15.40999985   5.12000036  55.17000198
C    16.79999924   5.05000019  55.14999771
C     7.07000017   3.35000014  56.37000275
H     6.63566637   3.67041016  55.42301178
H    11.36999989   3.61999989  53.80000305
H    12.43999958   6.07999992  58.02999878
H    10.14000034   5.86000013  58.83999634
H     7.99000025   4.74000025  58.55999756
H     9.10000038   3.07000017  54.75999832
H    17.22999954   4.51000023  54.31999969
H     6.44999981   3.61000013  57.22999954
H     7.25000000   2.26999998  56.42000198
S    17.76000023   6.83000040  52.56000137
C    20.42000008   7.04999971  51.79999924
C    19.15999985   6.57999992  51.50000000
C    18.86000061   6.10000038  50.19000244
C    19.89999962   5.93999958  49.29000092
C    21.18999863   6.47000027  49.52000046
C    22.25000000   6.46000004  48.56999969
C    23.46999931   7.03999996  48.81999969
C    23.64999962   7.75000000  50.04000092
C    22.65000153   7.79999971  50.97999954
C    21.42000008   7.11000013  50.79000092
C    17.42000008   5.95000029  50.02999878
C    16.73999977   6.21999979  51.24000168
C    15.34999943   6.21999979  51.37000275
C    25.05000114   8.21000004  50.37000275
H    25.46172905   7.51432037  51.10117340
H    20.56999969   7.50000000  52.77000046
H    19.70000076   5.38999987  48.36999893
H    22.06999969   6.10000038  47.55000305
H    24.27999878   6.90999985  48.11000061
H    22.93999863   8.26000023  51.91999817
H    14.78999996   6.44999981  52.27000427
H    25.59000015   8.19000053  49.41999817
H    25.02000046   9.22000027  50.79999924
S    14.15999985   5.13999987  47.68000031
C    11.54000092   4.72000027  48.56999969
C    12.82999992   5.12000036  48.85000229
C    13.23999977   5.46000004  50.17000198
C    12.28000069   5.53999996  51.16000366
C    10.92000008   5.23999977  50.90999985
C     9.89000034   5.46999979  51.86999893
C     8.57999992   5.17000008  51.58000183
C     8.27000046   4.53000021  50.34999847
C     9.22000027   4.35999966  49.38000107
C    10.54999924   4.80999994  49.58000183
C    14.67000008   5.77000046  50.24000168
C    15.29999924   5.46000004  49.01000214
C    16.69000053   5.46999979  48.94000244
C     6.81999969   4.19000006  50.04000092
H     6.46451855   4.63079691  49.10864258
H    11.13000011   4.33999968  47.63999939
H    12.61000061   5.79999971  52.15999985
H    10.19999981   6.02999973  52.75000000
H     7.79999971   5.38999987  52.30999756
H     8.88000011   4.09999990  48.37999725
H    17.11000061   5.15999985  47.98999786
H     6.32000017   4.61000013  50.91999817
H     6.63999987   3.10999990  49.98000336
