96

S    17.63000107   6.44999981  58.86000061
C    20.29999924   6.58999968  58.15000153
C    19.02000046   6.25999975  57.77999878
C    18.67000008   5.71000004  56.51000214
C    19.65999985   5.55999994  55.54999924
C    20.94000053   6.07999992  55.83000183
C    21.93000031   6.17999983  54.80999756
C    23.22999954   6.54999971  55.06999969
C    23.59000015   6.90999985  56.39999771
C    22.65999985   6.86999989  57.41000366
C    21.31999969   6.48000002  57.15999985
C    17.22999954   5.47999954  56.42000198
C    16.53000069   5.82999992  57.60000229
C    15.14999962   5.75000000  57.72999573
C    25.00999832   7.28999996  56.76000214
H    25.54538918   6.59756279  57.40960693
H    20.48000145   7.20000029  59.02999878
H    19.34999847   5.33999968  54.52999878
H    21.68000031   5.78000021  53.82999802
H    23.97999954   6.67999983  54.29999924
H    22.88999939   7.13000011  58.43999863
H    14.68999958   5.97000027  58.68999863
H    25.58000183   7.40999985  55.83000183
H    25.03000069   8.27000046  57.25999832
S    13.94000053   4.32000017  54.31000137
C    11.30000019   3.86999989  55.18000031
C    12.56000042   4.33999968  55.41999817
C    12.94999981   5.07999992  56.59000015
C    11.92999935   5.38999987  57.48000336
C    10.60999966   4.92000008  57.28000259
C     9.59999943   4.98000002  58.29000092
C     8.36000061   4.42999983  58.11000061
C     7.95000029   3.81999993  56.88999939
C     8.94999981   3.65000010  55.96000290
C    10.26999950   4.13000011  56.12999725
C    14.37999916   5.32000017  56.63999939
C    15.11000061   4.90999985  55.50000000
C    16.50000000   4.80999994  55.43000031
C     6.51000023   3.40999985  56.66999817
H     6.04745150   3.97217441  55.85876083
H    10.95999908   3.25999999  54.34999847
H    12.20000076   5.96000004  58.36000061
H     9.77999973   5.38999987  59.27999878
H     7.57000017   4.42000008  58.85000229
H     8.85000038   3.30000019  54.93000031
H    17.04000092   4.33999968  54.61999893
H     6.01000023   3.53999996  57.63999939
H     6.44000006   2.33999991  56.44000244
S    13.94000053   2.38000011  51.38000107
C    11.44000053   1.58000004  52.23999786
C    12.79999924   1.59999990  52.49000168
C    13.48999977   0.87000000  53.50999832
C    12.71999931   0.12000000  54.36999893
C    11.31000042   0.14999999  54.20999908
C    10.46000004  -0.50000000  55.13999939
C     9.09000015  -0.48000002  55.07999802
C     8.45000076   0.19000000  54.00000000
C     9.22000027   0.79999995  53.04000092
C    10.65000057   0.79000002  53.09999847
C    14.93000031   1.11000001  53.54000092
C    15.29000092   1.92000008  52.43000031
C    16.52000046   2.54999995  52.36000061
C     6.96000004   0.45000002  53.97999573
H     6.43385458   0.10160643  53.09123611
H    11.06999969   2.24000001  51.45999908
H    13.23999977  -0.45000002  55.13000107
H    11.00999928  -0.99000001  55.94999695
H     8.50000000  -0.82999998  55.91999817
H     8.76000023   1.43999994  52.29999924
H    16.64999962   3.28999996  51.58000183
H     6.50000000  -0.05000000  54.84000397
H     6.74000025   1.51999998  54.06000137
S    18.53000069   0.87000000  55.38999939
C    20.97999954   1.99000001  54.66999817
C    19.64999962   1.80000007  54.36999893
C    18.94000053   2.44000006  53.30999756
C    19.70000076   3.24000001  52.47000122
C    21.09999847   3.37000012  52.63999939
C    21.91999817   4.11999989  51.75000000
C    23.28000069   4.21000004  51.91999817
C    23.88000107   3.56999993  53.02999878
C    23.16999817   2.82000017  53.94000244
C    21.76000214   2.75999999  53.76999664
C    17.51000023   2.16000009  53.27000046
C    17.15999985   1.34000003  54.36999893
C    15.86999989   0.86000001  54.54999924
C    25.36999893   3.63999987  53.30999756
H    25.70471382   3.04178667  54.15746689
H    21.42999840   1.36999989  55.44000244
H    19.23999977   3.77999997  51.65000153
H    21.45000076   4.53999996  50.86000061
H    23.81000137   4.82999992  51.20999908
H    23.61999893   2.11999989  54.64000320
H    15.67000008   0.17999999  55.38000107
H    25.45000076   4.69999981  53.59000397
H    25.98999977   3.45999980  52.42000198
