96

S    17.64000130   6.14000034  58.76999664
C    20.38000107   6.28999996  57.91999817
C    19.06999969   5.88999987  57.76000214
C    18.65999985   5.26999998  56.53999710
C    19.56999969   5.07000017  55.51000214
C    20.94000053   5.38000011  55.68999863
C    21.97999954   5.19999981  54.72999954
C    23.28000069   5.58000040  54.94999695
C    23.61999893   6.23000050  56.16000366
C    22.67000008   6.46000004  57.12999725
C    21.35000038   5.97000027  56.93999863
C    17.22999954   5.01999950  56.42000198
C    16.52000046   5.51999998  57.54000092
C    15.14999962   5.71000004  57.56999969
C    25.06000137   6.60000038  56.43000031
H    25.46466255   6.03205109  57.26772308
H    20.79999924   6.80999994  58.77999878
H    19.26000023   4.63999987  54.55999756
H    21.61000061   4.88999987  53.75000000
H    23.97000122   5.49000025  54.10999680
H    22.90999985   6.98999977  58.04000092
H    14.68000031   6.05999994  58.47999954
H    25.76000023   6.50000000  55.59000015
H    25.12000084   7.68000031  56.63000107
S    14.11000061   4.15000010  54.06999969
C    11.46000004   3.86999989  54.82999802
C    12.69000053   4.44000006  55.07999802
C    13.00000000   5.17000008  56.27999878
C    11.94000053   5.38000011  57.14000320
C    10.62999916   4.92999983  56.86000061
C     9.53999996   5.35000038  57.67000198
C     8.25000000   4.92999983  57.44999695
C     8.01999950   4.00000000  56.39999771
C     9.04999924   3.61999989  55.58000183
C    10.39999962   4.03999996  55.75000000
C    14.44000053   5.32000017  56.43000031
C    15.18000031   4.79999971  55.33000183
C    16.54999924   4.57999992  55.27000046
C     6.60000038   3.51999998  56.14999771
H     6.16633129   4.05319881  55.30398941
H    11.17000008   3.40999985  53.88000107
H    12.15999985   5.75000000  58.13999939
H     9.85000038   6.01999998  58.47000122
H     7.37999964   5.26999998  58.02000046
H     8.97000027   2.92000008  54.75000000
H    16.87999916   4.18000031  54.31999969
H     6.00000000   3.54999995  57.05999756
H     6.69000053   2.45000005  55.94999695
S    14.96999931   2.32999992  50.89000320
C    12.31999969   1.65000010  51.38000107
C    13.63999939   1.57000005  51.77999878
C    14.06999969   1.01999998  53.02999878
C    13.12999916   0.44000000  53.86000061
C    11.77999973   0.43000001  53.44999695
C    10.77000046  -0.14000000  54.29000092
C     9.47000027  -0.17000002  53.83999634
C     9.02999973   0.65999997  52.77999878
C     9.96999931   1.12000000  51.88000107
C    11.35000038   1.10000002  52.25999832
C    15.50000000   1.13999999  53.27999878
C    16.04999924   1.93000007  52.23999786
C    17.32999992   2.44000006  52.32999802
C     7.55999994   0.93999994  52.61000061
H     7.05181313   0.29064995  51.89712524
H    11.96000004   2.00999999  50.41999817
H    13.47000027  -0.17000002  54.69999695
H    11.09000015  -0.65999997  55.18000031
H     8.73999977  -0.67000002  54.47999954
H     9.72000027   1.53999996  50.91999817
H    17.71999931   3.03999996  51.50000000
H     7.05999947   0.81000000  53.57999802
H     7.40000010   2.00000000  52.41000366
S    18.89000130   0.71000004  55.52000046
C    21.54000092   1.41000009  54.85000229
C    20.19000053   1.52999997  54.62999725
C    19.59000015   2.13000011  53.47999954
C    20.43000031   2.46000004  52.42000198
C    21.83000183   2.27999997  52.50000000
C    22.75000000   2.71000004  51.50000000
C    24.10000038   2.73000002  51.75000000
C    24.61999893   2.36000013  53.02000046
C    23.75999832   1.81999993  53.95000076
C    22.34999847   1.76999998  53.74000168
C    18.13999939   2.03999996  53.40000153
C    17.59000015   1.25999999  54.45000076
C    16.28000069   0.78000003  54.38999939
C    25.97999954   2.86999989  53.43000031
H    26.21569443   2.36290264  54.36562729
H    21.94999886   0.90000004  55.72000122
H    19.93000031   2.79999995  51.52000046
H    22.36999893   3.16000009  50.59000015
H    24.79000092   3.25000000  51.07999802
H    24.23000145   1.65000010  54.91000366
H    15.75000000   0.17999999  55.11000061
H    25.76999855   3.95000005  53.47000122
H    26.71999931   2.68000007  52.63999939
