96

S    17.94999886   6.25000000  59.16999817
C    20.69999886   6.14000034  58.48999786
C    19.38999939   5.84000015  58.20999908
C    19.02000046   5.27999973  56.93999863
C    20.00999832   5.13000011  55.98999786
C    21.35000038   5.51999998  56.19999695
C    22.39000130   5.13999987  55.28999710
C    23.71999931   5.42999983  55.52999878
C    24.04999924   6.00000000  56.77999878
C    23.08000183   6.32000017  57.70000076
C    21.70000076   6.02999973  57.49000168
C    17.57999992   5.19999981  56.81000137
C    16.86000061   5.86000013  57.83000183
C    15.48999977   6.06999969  57.72999573
C    25.48999977   6.38999987  57.01000214
H    25.87400818   5.79976273  57.84202194
H    21.09000015   6.48000002  59.45000076
H    19.76000023   4.48999977  55.13999939
H    21.97999954   4.55999994  54.47000122
H    24.53000069   5.23000002  54.84000397
H    23.36999893   6.91999960  58.56999969
H    14.96999931   6.39999962  58.62999725
H    26.17000198   6.39999962  56.14999771
H    25.40999985   7.42999983  57.34000397
S    14.53999996   4.42000008  54.26000214
C    11.82000065   4.55000019  54.80999756
C    13.09000015   4.99000025  55.10000229
C    13.35000038   5.51000023  56.40999603
C    12.35000038   5.68000031  57.35000229
C    11.00999928   5.38999987  56.98999786
C     9.92999935   5.55000019  57.90999985
C     8.69999981   5.00999975  57.62000275
C     8.47000027   4.30999994  56.40999603
C     9.43000031   4.36999989  55.41999817
C    10.76000023   4.77999973  55.72000122
C    14.78999996   5.65000010  56.59000015
C    15.57000065   5.07000017  55.54999924
C    16.90000153   4.72000027  55.68000031
C     7.26000023   3.45000005  56.12999725
H     6.60502291   4.08361912  55.53197479
H    11.68000031   3.96000004  53.90999603
H    12.58999920   6.17000008  58.29000092
H    10.19000053   5.88999987  58.90999603
H     8.09000015   4.80999994  58.50000000
H     9.30000019   3.75000000  54.52999878
H    17.43999863   4.41000032  54.78000259
H     6.71999979   3.33999991  57.09000015
H     7.35000038   2.43000007  55.75000000
S    14.85000038   2.39999986  51.22000122
C    12.20000076   1.88999999  51.95000076
C    13.53999996   1.72000003  52.19999695
C    13.94000053   1.07000005  53.40999985
C    12.94999981   0.54000002  54.22000122
C    11.56000042   0.61000001  53.95999908
C    10.59000015  -0.01000000  54.79999924
C     9.25000000   0.09999999  54.48999786
C     8.85999966   0.90000004  53.39000320
C     9.78999996   1.42000008  52.51999664
C    11.18999958   1.33000004  52.77999878
C    15.38000011   1.19999993  53.56999969
C    15.97000027   1.95999992  52.52999878
C    17.30999947   2.28999996  52.63000107
C     7.40000010   1.28999996  53.22999954
H     6.88809633   0.74965715  52.43370438
H    11.90999985   2.33999991  51.00000000
H    13.12999916   0.19000000  55.22999573
H    10.95999908  -0.39000002  55.75000000
H     8.51000023  -0.32999998  55.15999603
H     9.44999981   1.94999993  51.63999939
H    17.79999924   2.54999995  51.69000244
H     6.90999985   1.13999999  54.20000076
H     7.44999981   2.37000012  53.09000015
S    18.60000038   0.65999997  56.02000427
C    21.25000000   1.21000004  55.33000183
C    19.90999985   1.41000009  55.07999802
C    19.52000046   2.05999994  53.86000061
C    20.45000076   2.70000005  53.06999969
C    21.84000015   2.53999996  53.29999924
C    22.85000038   2.98000002  52.39999771
C    24.13999939   2.53999996  52.60000229
C    24.47999954   1.72999990  53.70999908
C    23.54000092   1.22000003  54.59000015
C    22.20999908   1.71000004  54.41999817
C    18.07999992   1.89999998  53.73000336
C    17.46000099   1.10000002  54.72999954
C    16.13999939   0.69000000  54.62999725
C    25.94000053   1.59999990  54.09000015
H    26.18899536   2.01973581  55.06464005
H    21.48999977   0.46000001  56.06999969
H    20.20000076   3.17999983  52.11999893
H    22.56999969   3.63999987  51.59000015
H    24.89999962   2.94999981  51.93999863
H    23.75000000   0.61000001  55.45999908
H    15.71000004   0.04000000  55.38999939
H    26.45999908   2.11999989  53.27999878
H    26.18999863   0.54000002  53.99000168
