96

S    17.68000031   5.82999992  58.54999924
C    20.26000023   6.47000027  57.64999771
C    19.01000023   5.98000002  57.37999725
C    18.56999969   5.51000023  56.10000229
C    19.55000114   5.49000025  55.12000275
C    20.88000107   5.88000011  55.40000153
C    21.87000084   5.82000017  54.38000107
C    23.15000153   6.26999950  54.55999756
C    23.52999878   6.83000040  55.80999756
C    22.62000084   6.86999989  56.84000015
C    21.31000137   6.34000015  56.70000076
C    17.12000084   5.35000038  56.05999756
C    16.46000099   5.55999994  57.29000092
C    15.07999992   5.59999990  57.47000122
C    24.96999931   7.23000002  56.03000259
H    25.46185303   6.69537687  56.84262848
H    20.40999985   6.97000027  58.60000229
H    19.23999977   5.00999975  54.19000244
H    21.54999924   5.46000004  53.40999985
H    23.90999985   6.23000050  53.77999878
H    22.84000015   7.44999981  57.74000168
H    14.60000038   5.59000015  58.43999863
H    25.56999969   6.96000004  55.14999771
H    25.05000114   8.30999947  56.19999695
S    13.81999969   4.71000004  53.80000305
C    11.19999981   4.28000021  54.72000122
C    12.48999977   4.72000027  54.95999908
C    12.84000015   5.19000006  56.26999664
C    11.87999916   5.21000004  57.25999832
C    10.53999996   4.82999992  57.04000092
C     9.57999992   4.78999996  58.09000015
C     8.36000061   4.21999979  57.81000137
C     8.03999996   3.65999985  56.55000305
C     8.93000031   3.75000000  55.50000000
C    10.21000004   4.33999968  55.72999954
C    14.28999996   5.38000011  56.32999802
C    14.94999981   5.07000017  55.12000275
C    16.32999992   4.99000025  54.95999908
C     6.65000010   3.15000010  56.23000336
H     6.09420729   3.83405280  55.58870316
H    11.00999928   3.75999975  53.79000092
H    12.13000107   5.40999985  58.29999924
H     9.92000008   4.97000027  59.10999680
H     7.63999987   4.28999996  58.61999893
H     8.64999962   3.31999993  54.54000092
H    16.80999947   4.86999989  54.00000000
H     6.05999994   2.98000002  57.14000320
H     6.77999973   2.19000006  55.72999954
S    17.39999962   6.80999994  52.34000397
C    20.06000137   7.07000017  51.44000244
C    18.77000046   6.65999985  51.22000122
C    18.45000076   6.05000019  49.95999908
C    19.45000076   5.71000004  49.06000137
C    20.72999954   6.28999996  49.22000122
C    21.68999863   6.23000050  48.18000031
C    22.92000008   6.81999969  48.37999725
C    23.29999924   7.48000050  49.58000183
C    22.34999847   7.55999994  50.58000183
C    21.04000092   7.03000021  50.41999817
C    17.02000046   5.84000015  49.87999725
C    16.32999992   6.28000021  51.04000092
C    14.93999958   6.35999966  51.11000061
C    24.71999931   7.90000010  49.88999939
H    25.12551498   7.44468546  50.79351807
H    20.39999962   7.40999985  52.42000198
H    19.25000000   5.26000023  48.09000015
H    21.32999802   5.73000002  47.28000259
H    23.64999962   6.80000019  47.57999802
H    22.63999939   8.23000050  51.38000107
H    14.51000023   6.91999960  51.93999863
H    25.45000076   7.73000002  49.09000015
H    24.79000092   8.98999977  49.97000122
S    13.68000031   4.86999989  47.70000076
C    11.07999992   4.38000011  48.61000061
C    12.30000019   4.98000002  48.80000305
C    12.69000053   5.55000019  50.06000137
C    11.71000004   5.65000010  51.02000427
C    10.39999962   5.13999987  50.81999969
C     9.35000038   5.42000008  51.72999954
C     8.06999969   4.98000002  51.49000168
C     7.75000000   4.23999977  50.31999969
C     8.73000050   4.00000000  49.38999939
C    10.07999992   4.42000008  49.61999893
C    14.11999893   5.79999971  50.13000107
C    14.81999969   5.44000053  48.94000244
C    16.20000076   5.36000013  48.83999634
C     6.32000017   3.81999993  50.06000137
H     5.81506681   4.48139095  49.35593796
H    10.81999969   3.86000013  47.70000076
H    12.00000000   6.09000015  51.97000122
H     9.81000042   5.86999989  52.61000061
H     7.36999989   5.10999966  52.30999756
H     8.53999996   3.40000010  48.50999832
H    16.51000023   4.92000008  47.90000153
H     5.78999996   3.86000013  51.03000259
H     6.26999950   2.80999994  49.64000320
