96

S    16.95999908   6.54999971  58.72000122
C    19.50000000   7.11000013  57.78999710
C    18.30999947   6.46000004  57.56000137
C    17.95999908   5.79999971  56.33999634
C    18.90999985   5.69999981  55.34000015
C    20.19000053   6.25999975  55.56999969
C    21.25000000   6.01999998  54.65000153
C    22.56000137   6.35999966  54.93000031
C    22.77000046   7.21000004  56.04999924
C    21.80000114   7.50000000  56.97000122
C    20.48999977   6.98000002  56.77999878
C    16.54000092   5.45000029  56.26999664
C    15.92000008   5.80999947  57.49000168
C    14.52999973   5.73000002  57.57999802
C    24.20999908   7.67000008  56.18999863
H    24.64530182   6.94925642  56.88219833
H    19.62000084   7.76999998  58.64999771
H    18.56999969   5.21000004  54.43000031
H    21.02000046   5.51999998  53.72000122
H    23.31999969   6.30999994  54.15999985
H    22.04000092   7.86000013  57.97000122
H    13.96000004   5.98000002  58.47000122
H    24.75000000   7.57999992  55.24000168
H    24.25000000   8.69000053  56.59999847
S    13.21000004   4.48999977  54.08000183
C    10.55999947   4.28999996  55.05000305
C    11.85999966   4.71000004  55.21999741
C    12.30000019   5.18000031  56.50000000
C    11.38000011   5.40000010  57.50000000
C    10.03000069   5.01999950  57.32999802
C     9.06999969   5.05000019  58.37999725
C     7.78999996   4.55999994  58.22000122
C     7.36000013   3.98999977  56.98999786
C     8.30999947   3.84000015  56.00999832
C     9.63000011   4.36999989  56.11000061
C    13.73999977   5.38999987  56.47999573
C    14.40000057   5.07000017  55.26000214
C    15.77999973   4.90999985  55.22999573
C     5.95000029   3.49000001  56.79999924
H     5.44812250   4.11911392  56.06485748
H    10.26000023   3.72000003  54.16999817
H    11.63000011   5.97000027  58.39000320
H     9.43000031   5.36999989  59.36000061
H     7.09000015   4.67999983  59.03999710
H     8.07999992   3.38000011  55.06000137
H    16.32999992   4.56999969  54.36000061
H     5.38000011   3.58000016  57.74000168
H     6.02999973   2.47000003  56.40999603
S    12.79999924   2.16999984  51.09000397
C    10.21999931   1.33000004  51.95000076
C    11.57999992   1.38000000  52.11999893
C    12.18000031   0.85000002  53.30999756
C    11.40999985   0.12000000  54.18000031
C    10.00000000   0.01000000  54.02999878
C     9.15000057  -0.39999998  55.08999634
C     7.77999973  -0.34999999  55.00999832
C     7.14999962   0.14000000  53.82999802
C     7.97999954   0.65999997  52.85999680
C     9.39999962   0.67000002  52.90000153
C    13.57999992   1.26999998  53.40000153
C    14.07999992   2.00000000  52.29999924
C    15.42000008   2.37000012  52.22000122
C     5.65000010   0.27000001  53.67000198
H     5.36688995  -0.25375387  52.75696945
H     9.76000023   1.94000006  51.18000031
H    11.85999966  -0.28999999  55.07999802
H     9.55999947  -0.64000005  56.05999756
H     7.17000008  -0.62000000  55.86999893
H     7.55000019   1.08999991  51.95999908
H    15.80999947   2.84999990  51.31999969
H     5.09000015  -0.24000001  54.45999908
H     5.32000017   1.31999993  53.59000397
S    17.02000046   1.01999998  55.65000153
C    19.56999969   1.87999988  54.99000168
C    18.23999977   1.82999992  54.65000153
C    17.69000053   2.36000013  53.43000031
C    18.54999924   3.00999999  52.56000137
C    19.93999863   2.94999981  52.78999710
C    20.92000008   3.42000008  51.86000061
C    22.25000000   3.40000010  52.16999817
C    22.70999908   2.89999986  53.41999817
C    21.84000015   2.36000013  54.34000015
C    20.45999908   2.40999985  54.02000046
C    16.27000046   2.05999994  53.29000092
C    15.78999996   1.34000003  54.40999985
C    14.48999977   0.83999997  54.36999893
C    24.17000008   2.52999997  53.54999924
H    24.73122978   3.19779229  54.20358276
H    19.86999893   1.47000003  55.94999695
H    18.20000076   3.37000012  51.59999847
H    20.62000084   3.82999992  50.90000153
H    22.95000076   3.37000012  51.33999634
H    22.07999992   1.84000003  55.27000046
H    14.09000015   0.20999999  55.15999603
H    24.61999893   2.63000011  52.55000305
H    24.20000076   1.48000002  53.83999634
