96

S    16.95999908   6.54999971  58.72000122
C    19.50000000   7.11000013  57.78999710
C    18.30999947   6.46000004  57.56000137
C    17.95999908   5.79999971  56.33999634
C    18.90999985   5.69999981  55.34000015
C    20.19000053   6.25999975  55.56999969
C    21.25000000   6.01999998  54.65000153
C    22.56000137   6.35999966  54.93000031
C    22.77000046   7.21000004  56.04999924
C    21.80000114   7.50000000  56.97000122
C    20.48999977   6.98000002  56.77999878
C    16.54000092   5.45000029  56.26999664
C    15.92000008   5.80999947  57.49000168
C    14.52999973   5.73000002  57.57999802
C    24.20999908   7.67000008  56.18999863
H    24.64530182   6.94925642  56.88219833
H    19.62000084   7.76999998  58.64999771
H    18.56999969   5.21000004  54.43000031
H    21.02000046   5.51999998  53.72000122
H    23.31999969   6.30999994  54.15999985
H    22.04000092   7.86000013  57.97000122
H    13.96000004   5.98000002  58.47000122
H    24.75000000   7.57999992  55.24000168
H    24.25000000   8.69000053  56.59999847
S    13.21000004   4.48999977  54.08000183
C    10.55999947   4.28999996  55.05000305
C    11.85999966   4.71000004  55.21999741
C    12.30000019   5.18000031  56.50000000
C    11.38000011   5.40000010  57.50000000
C    10.03000069   5.01999950  57.32999802
C     9.06999969   5.05000019  58.37999725
C     7.78999996   4.55999994  58.22000122
C     7.36000013   3.98999977  56.98999786
C     8.30999947   3.84000015  56.00999832
C     9.63000011   4.36999989  56.11000061
C    13.73999977   5.38999987  56.47999573
C    14.40000057   5.07000017  55.26000214
C    15.77999973   4.90999985  55.22999573
C     5.95000029   3.49000001  56.79999924
H     5.44812250   4.11911392  56.06485748
H    10.26000023   3.72000003  54.16999817
H    11.63000011   5.97000027  58.39000320
H     9.43000031   5.36999989  59.36000061
H     7.09000015   4.67999983  59.03999710
H     8.07999992   3.38000011  55.06000137
H    16.32999992   4.56999969  54.36000061
H     5.38000011   3.58000016  57.74000168
H     6.02999973   2.47000003  56.40999603
S    16.53000069   6.77999973  52.45999908
C    19.22999954   6.84999990  51.76000214
C    17.94999886   6.44999981  51.45000076
C    17.60000038   5.75999975  50.24000168
C    18.53000069   5.66999960  49.22000122
C    19.85999870   6.05999994  49.47999954
C    20.81000137   6.00000000  48.40999985
C    22.04999924   6.57000017  48.60000229
C    22.43000031   7.17999983  49.81999969
C    21.47999954   7.27999973  50.81999969
C    20.19000053   6.70000029  50.72000122
C    16.15999985   5.51000023  50.19000244
C    15.44000053   5.93999958  51.32999802
C    14.06000042   6.15999985  51.35000229
C    23.75999832   7.83999968  50.13999939
H    24.35776711   7.22088337  50.80892944
H    19.45999908   7.25000000  52.74000168
H    18.32999992   5.44000053  48.18000031
H    20.52000046   5.72000027  47.39999771
H    22.69000053   6.51000023  47.72999573
H    21.77000046   7.76000023  51.75000000
H    13.60000038   6.53999996  52.25999832
H    24.28999901   8.00000000  49.19000244
H    23.61999893   8.85999966  50.51000214
S    12.84999943   4.69999981  47.85999680
C    10.17000008   4.44999981  48.69999695
C    11.44000053   4.92999983  48.90999603
C    11.84999943   5.61999989  50.10000229
C    10.90000057   5.82000017  51.06999969
C     9.57999992   5.32999992  50.91999817
C     8.73000050   5.32999992  52.06999969
C     7.48000050   4.76999998  51.93999863
C     7.03000021   4.18000031  50.72999954
C     7.88000011   4.11999989  49.65000153
C     9.19000053   4.67000008  49.71000290
C    13.30000019   5.69999981  50.27000046
C    13.97999954   5.21000004  49.13000107
C    15.36000061   5.14999962  49.09999847
C     5.64000034   3.58000016  50.65999985
H     5.10586929   3.96457410  49.79114532
H     9.81999969   3.97000027  47.78999710
H    11.17000008   6.14000034  52.08000183
H     9.01000023   5.75999975  53.02000046
H     6.75000000   4.90000010  52.72999573
H     7.59999990   3.55999994  48.75999832
H    15.86999989   4.92999983  48.15999985
H     4.96000004   3.76999998  51.50000000
H     5.72000027   2.49000001  50.56000137
