96

S    16.75000000   6.39999962  58.60000229
C    19.47000122   6.48999977  57.80000305
C    18.15000153   6.17999983  57.55000305
C    17.72999954   5.59999990  56.31000137
C    18.70000076   5.23999977  55.38999939
C    20.03999901   5.64000034  55.56999969
C    21.07000160   5.36999989  54.62999725
C    22.34999847   5.82000017  54.80999756
C    22.67999840   6.67000008  55.90000153
C    21.75000000   6.85999966  56.88999939
C    20.43999863   6.30999994  56.77999878
C    16.28999901   5.42999983  56.20999908
C    15.59000015   5.88000011  57.36999893
C    14.19999981   5.92999983  57.38999939
C    24.14999962   7.03000021  56.04000092
H    24.64177895   6.47407627  56.83824921
H    19.79999924   6.90000010  58.75000000
H    18.40999985   4.74000025  54.45999908
H    20.81000137   4.79999971  53.74000168
H    23.12000084   5.53999996  54.09000015
H    22.04999924   7.34000015  57.81000137
H    13.64999962   6.25999975  58.27000046
H    24.56000137   6.77999973  55.06000137
H    24.21999931   8.11999989  56.20999908
S    13.12999916   4.32999992  53.92000198
C    10.46000004   3.93000007  54.61999893
C    11.68000031   4.48999977  54.93999863
C    12.06999969   5.03999996  56.19999695
C    11.06999969   5.03999996  57.15999985
C     9.76000023   4.59000015  56.88000107
C     8.71999931   4.76999998  57.84999847
C     7.50000000   4.17000008  57.65999603
C     7.21000004   3.54999995  56.42000198
C     8.14999962   3.49000001  55.41999817
C     9.50000000   3.88999987  55.65999985
C    13.48999977   5.29999971  56.36000061
C    14.21000004   4.84000015  55.22999573
C    15.59999943   4.82999992  55.14999771
C     5.77000046   3.12000012  56.20999908
H     5.16310740   3.79829216  55.61024857
H    10.31999969   3.49000001  53.63999939
H    11.28999901   5.32999992  58.18999863
H     9.00000000   5.09999990  58.83999634
H     6.77999973   4.17000008  58.47999954
H     7.97999954   3.08999991  54.41999817
H    15.98000050   4.38000011  54.23999786
H     5.31000042   3.05000019  57.19999695
H     5.84999990   2.14000010  55.73999786
S    16.79000092   6.50000000  52.70000076
C    19.45999908   6.69000053  51.91999817
C    18.18000031   6.30000019  51.60999680
C    17.79000092   5.78999996  50.33000183
C    18.78000069   5.53999996  49.38999939
C    20.13000107   5.82999992  49.68999863
C    21.11999893   5.60999966  48.69999695
C    22.42000198   6.02999973  48.88999939
C    22.75000000   6.71000004  50.10000229
C    21.84000015   6.76000023  51.12999725
C    20.46999931   6.43000031  50.96000290
C    16.35000038   5.72000027  50.20000076
C    15.67999935   5.97000027  51.42000198
C    14.28999996   6.01000023  51.47999573
C    24.11999893   7.30000019  50.31999969
H    24.78938675   6.60925007  50.83272171
H    19.65999985   7.30000019  52.80000305
H    18.42000008   5.36000013  48.37999725
H    20.92000008   5.21000004  47.70999908
H    23.11000061   5.97000027  48.06000137
H    22.11999893   7.35000038  52.00000000
H    13.81000042   6.34000015  52.39999771
H    24.53000069   7.69000006  49.38000107
H    23.97000122   8.10999966  51.04000092
S    13.17999935   4.98000002  47.78999710
C    10.55999947   4.35999966  48.56999969
C    11.77999973   4.92000008  48.88000107
C    12.11999989   5.40999985  50.18000031
C    11.10999966   5.50000000  51.11999893
C     9.81999969   4.96000004  50.91999817
C     8.85999966   4.96000004  51.97000122
C     7.63000011   4.36999989  51.75000000
C     7.39000034   3.84000015  50.45999908
C     8.32999992   3.78999996  49.45999908
C     9.59999943   4.42999983  49.59999847
C    13.55000019   5.66999960  50.34000015
C    14.23999977   5.47999954  49.12000275
C    15.62999916   5.49000025  49.01000214
C     5.96000004   3.47000003  50.12000275
H     5.52702284   4.13721180  49.37471008
H    10.44999981   3.81000018  47.63999939
H    11.26000023   5.95000029  52.09999847
H     8.96000004   5.42999983  52.94000244
H     6.80000019   4.36999989  52.44999695
H     7.99000025   3.49000001  48.47000122
H    16.03000069   5.36999989  48.01000214
H     5.31000042   3.38999987  51.00000000
H     6.07999992   2.50000000  49.61999893
