96

S    17.46999931   6.21000004  58.66000366
C    20.17999840   6.21999979  58.06999969
C    18.89999962   5.89999962  57.65999603
C    18.59000015   5.38999987  56.36000061
C    19.59000015   5.26999998  55.41999817
C    20.90999985   5.65000010  55.73999786
C    21.98999786   5.61999989  54.80999756
C    23.25000000   6.11999989  55.07999802
C    23.47999954   6.71000004  56.35000229
C    22.47999954   6.69000053  57.29000092
C    21.17000198   6.15999985  57.05999756
C    17.14999962   5.23999977  56.22000122
C    16.40999985   5.63000011  57.36999893
C    15.03000069   5.78999996  57.29000092
C    24.80999947   7.28999996  56.75000000
H    25.52150726   6.50734282  57.01325607
H    20.35000038   6.74000025  59.01000214
H    19.32999992   4.86000013  54.43999863
H    21.77999878   5.18000031  53.83999634
H    24.09000015   6.11999989  54.38999939
H    22.76000023   6.85999966  58.31999969
H    14.37000084   5.98000002  58.13999939
H    25.15000153   8.00000000  55.97999954
H    24.44999886   7.90999985  57.57999802
S    14.01000023   4.19000006  53.80000305
C    11.31000042   3.94000006  54.55999756
C    12.56000042   4.44999981  54.79000092
C    12.92000008   5.12000036  56.00000000
C    11.90999985   5.40999985  56.90000153
C    10.60999966   4.88999987  56.72000122
C     9.53999996   5.21000004  57.60000229
C     8.30999947   4.59999990  57.48000336
C     8.06999969   3.67000008  56.43000031
C     8.97999954   3.60000014  55.40999985
C    10.29000092   4.13000011  55.54000092
C    14.34999943   5.36000013  56.14999771
C    15.07999992   4.88999987  55.01999664
C    16.46999931   4.86999989  55.05000305
C     6.71000004   3.08999991  56.11999893
H     6.12011385   3.60170865  55.35954666
H    11.00000000   3.51000023  53.61000061
H    12.01000023   6.09000015  57.74000168
H     9.71000004   5.86000013  58.46000290
H     7.57000017   4.94000006  58.20000076
H     8.75000000   3.07999992  54.47999954
H    17.02000046   4.61999989  54.15000153
H     6.15999985   3.05000019  57.06999969
H     6.90000010   2.03999996  55.86999893
S    13.97999954   2.09000015  50.77999878
C    11.46000004   1.28999996  51.65999985
C    12.81999969   1.29999995  51.86000061
C    13.38999939   0.86000001  53.09999847
C    12.61999989   0.48999998  54.19000244
C    11.21999931   0.52999997  54.02000046
C    10.31999969   0.09999999  55.04000092
C     8.96000004   0.01000000  54.86999893
C     8.39999962   0.37000000  53.61999893
C     9.22999954   0.79000002  52.61000061
C    10.64000034   0.92000002  52.76000214
C    14.81999969   1.12000000  53.09000015
C    15.29000092   1.81999993  51.95000076
C    16.61000061   2.23000002  51.77000046
C     6.94999981   0.01000000  53.36000061
H     6.54296398   0.20280659  52.36740494
H    11.05999947   1.65999997  50.72000122
H    13.10999966   0.23000000  55.13000107
H    10.70000076  -0.32999998  55.97000122
H     8.38000011  -0.41999999  55.66999817
H     8.92000008   0.96000004  51.58000183
H    16.97000122   2.77999997  50.90999985
H     7.00000000  -1.08000004  53.50000000
H     6.32000017   0.37000000  54.18000031
S    18.30000114   1.15999997  55.24000168
C    20.82999992   1.88999999  54.38999939
C    19.47999954   1.88999999  54.13000107
C    18.96000099   2.26999998  52.84999847
C    19.81999969   2.84000015  51.91999817
C    21.21000099   2.89999986  52.18000031
C    22.14999962   3.51999998  51.31000137
C    23.43000031   3.75999975  51.72999954
C    23.94000053   3.22000003  52.94000244
C    23.12000084   2.48000002  53.75000000
C    21.73000145   2.42000008  53.43000031
C    17.53000069   1.99000001  52.80000305
C    17.05000114   1.43000007  54.00000000
C    15.76000023   0.90999997  54.09999847
C    25.40999985   3.40999985  53.27000046
H    25.79519272   3.07474041  54.23297882
H    21.17000198   1.79000008  55.41999817
H    19.45999908   3.40000010  51.06999969
H    21.83000183   3.81000018  50.31000137
H    24.13999939   4.28999996  51.10000229
H    23.52999878   1.94999993  54.59999847
H    15.34000015   0.41999999  54.97000122
H    25.52999878   4.48999977  53.16999817
H    25.92000008   2.94000006  52.42000198
