96

S    18.22999954   6.35999966  58.81000137
C    20.93000031   6.60000038  58.11999893
C    19.67000008   6.15000010  57.80000305
C    19.38999939   5.73000002  56.45999908
C    20.42000008   5.60999966  55.54999924
C    21.70999908   6.11000013  55.84999847
C    22.84000015   5.95000029  55.00000000
C    24.11999893   6.34000015  55.31999969
C    24.27999878   7.09000015  56.51000214
C    23.26000023   7.18999958  57.43000031
C    21.97999954   6.63000011  57.16999817
C    17.94000053   5.64000034  56.27999878
C    17.19000053   6.10000038  57.38999939
C    15.80999947   6.12999964  57.48000336
C    25.65999985   7.59999990  56.86999893
H    26.03828430   6.97190380  57.67653275
H    21.24000168   6.69000053  59.15999985
H    20.10000038   5.17000008  54.61000061
H    22.65000153   5.55000019  54.00000000
H    24.96999931   6.28999996  54.65000153
H    23.39999962   7.63999987  58.40999985
H    15.39000034   6.37000036  58.46000290
H    26.28000069   7.53000021  55.97000122
H    25.61000061   8.64000034  57.22999954
S    14.72000027   4.76999998  53.93000031
C    12.10999966   4.34999990  54.77000427
C    13.35999966   4.82999992  55.06999969
C    13.68000031   5.63000011  56.22000122
C    12.68000031   5.73999977  57.15999985
C    11.36000061   5.31000042  56.90999985
C    10.31000042   5.59000015  57.83000183
C     9.00000000   5.33999968  57.51999664
C     8.69999981   4.61999989  56.32999802
C     9.70000076   4.26000023  55.45000076
C    11.05999947   4.63000011  55.68000031
C    15.11999989   5.84000015  56.30000305
C    15.84000015   5.38999987  55.15999603
C    17.22999954   5.25000000  55.13999939
C     7.27999973   4.17000008  56.06999969
H     6.73434353   5.04163313  55.70859146
H    11.84999943   3.98000002  53.77999878
H    12.92000008   6.11000013  58.15999985
H    10.54999924   6.21999979  58.68000031
H     8.23000050   5.56999969  58.25000000
H     9.46000004   3.68000007  54.55999756
H    17.64999962   4.69999981  54.31000137
H     6.88000011   3.88000011  57.04000092
H     7.21000004   3.37000012  55.31999969
S    18.37000084   7.18999958  52.70000076
C    21.02999878   7.39000034  51.97999954
C    19.79999924   6.83000040  51.72000122
C    19.47000122   6.30000019  50.43000031
C    20.42000008   6.15000010  49.43000031
C    21.73000145   6.56000042  49.75999832
C    22.85000038   6.24000025  48.94000244
C    24.13999939   6.65999985  49.20000076
C    24.37000084   7.42999983  50.37000275
C    23.36000061   7.68000031  51.26999664
C    22.04000092   7.23000002  51.00000000
C    18.02999878   6.17999983  50.30000305
C    17.28000069   6.60000038  51.43000031
C    15.90000057   6.47000027  51.49000168
C    25.75000000   7.96999979  50.63999939
H    26.10545921   7.48657608  51.54997253
H    21.31999969   7.73000002  52.97000122
H    20.22999954   5.69000006  48.46000290
H    22.59000015   5.72000027  48.02999878
H    24.86000061   6.44000006  48.40999985
H    23.54999924   8.19999981  52.21000290
H    15.27999973   6.70000029  52.36000061
H    26.44000053   7.82000017  49.79000092
H    25.68000031   9.03999996  50.86999893
S    14.92000008   4.86000013  48.02000046
C    12.17000008   4.76000023  48.77999878
C    13.48999977   5.07000017  49.05000305
C    13.78000069   5.69999981  50.30000305
C    12.77999973   5.96000004  51.22000122
C    11.49000072   5.40999985  51.04000092
C    10.43000031   5.53999996  51.98999786
C     9.15999985   5.09999990  51.70000076
C     8.86999989   4.42999983  50.47999954
C     9.85000038   4.33999968  49.51000214
C    11.18000031   4.77999973  49.79000092
C    15.21999931   5.89999962  50.40000153
C    16.00000000   5.49000025  49.29000092
C    17.38000107   5.59999990  49.20000076
C     7.46999979   3.89999986  50.27000046
H     6.90127850   4.45450306  49.52355576
H    11.95000076   4.34999990  47.80000305
H    12.89000034   6.48000002  52.16999817
H    10.62999916   6.00000000  52.95000076
H     8.38999939   5.25000000  52.44999695
H     9.77999973   3.86000013  48.54000092
H    17.94999886   5.28999996  48.33000183
H     6.91999960   3.84999990  51.20999908
H     7.57000017   2.86000013  49.93000031
