96

S    17.36999893   5.80999947  58.97999573
C    20.03999901   5.97000027  58.11000061
C    18.73999977   5.58000040  57.88000107
C    18.30000114   5.21000004  56.56999969
C    19.22000122   5.12000036  55.54000092
C    20.56999969   5.47999954  55.77000046
C    21.59000015   5.35000038  54.79000092
C    22.89999962   5.75000000  54.97000122
C    23.29000092   6.30999994  56.20999908
C    22.30999947   6.44000006  57.18000031
C    21.00000000   5.88999987  57.08000183
C    16.84999847   5.05000019  56.51000214
C    16.18999863   5.44000053  57.70000076
C    14.80000019   5.42999983  57.76000214
C    24.61999893   7.00000000  56.35000229
H    25.13118553   6.53851223  57.19487762
H    20.30999947   6.42000008  59.06999969
H    18.94000053   4.65000010  54.59999847
H    21.35000038   4.74000025  53.93000031
H    23.64999962   5.58000040  54.20999908
H    22.47999954   7.03000021  58.08000183
H    14.32000065   5.69000006  58.69999695
H    25.13999939   6.91999960  55.38999939
H    24.36000061   8.06999969  56.39999771
S    13.63000011   4.07000017  54.18000031
C    10.98999977   3.84999990  54.89999771
C    12.25000000   4.26000023  55.27999878
C    12.58999920   4.76000023  56.58000183
C    11.59000015   4.96000004  57.50999832
C    10.31000042   4.46000004  57.18999863
C     9.26000023   4.44000006  58.15000153
C     8.02999973   3.89999986  57.87000275
C     7.67000008   3.54999995  56.53999710
C     8.67000008   3.45999980  55.59999847
C    10.00000000   3.86999989  55.90999985
C    14.01999950   4.98000002  56.69000244
C    14.70000076   4.55999994  55.51000214
C    16.07999992   4.59999990  55.41999817
C     6.30999994   2.98000002  56.20999908
H     5.61123276   3.67163706  55.73939896
H    10.77999973   3.52999973  53.88999939
H    11.71000004   5.40999985  58.50000000
H     9.50000000   4.82999992  59.13999939
H     7.14999962   3.86999989  58.50000000
H     8.43999958   3.08999991  54.61000061
H    16.56999969   4.30999994  54.50000000
H     5.92999983   2.43000007  57.06999969
H     6.57999992   2.26999998  55.41999817
S    17.11000061   6.23000050  52.70999908
C    19.76000023   6.52999973  51.86000061
C    18.47999954   6.09000015  51.59000015
C    18.09000015   5.68000031  50.27999878
C    19.03000069   5.60999966  49.27000046
C    20.36999893   5.98999977  49.52999878
C    21.40999985   5.92999983  48.54999924
C    22.70999908   6.28999996  48.79000092
C    22.95000076   6.98999977  50.00999832
C    21.97000122   7.18999958  50.96000290
C    20.69999886   6.57000017  50.79999924
C    16.64999962   5.46000004  50.20000076
C    15.98999977   5.78000021  51.40999603
C    14.60999966   5.86999989  51.52999878
C    24.36000061   7.42000008  50.33000183
H    24.80127525   6.70114803  51.02038574
H    20.02000046   6.90999985  52.84999847
H    18.77000046   5.18000031  48.29999924
H    21.11000061   5.55000019  47.57999802
H    23.45999908   6.11999989  48.02000046
H    22.19000053   7.53000021  51.97000122
H    14.14999962   6.11000013  52.49000168
H    24.87999916   7.40999985  49.36000061
H    24.34000015   8.46000004  50.65000153
S    13.31999969   4.53000021  48.02999878
C    10.73999977   4.11999989  48.93000031
C    11.96000004   4.69999981  49.15999985
C    12.38999939   5.25000000  50.40999985
C    11.44000053   5.38000011  51.40999603
C    10.11000061   4.92999983  51.22000122
C     9.15000057   5.01999950  52.25999832
C     7.90000010   4.48999977  52.04999924
C     7.57999992   3.77999997  50.86000061
C     8.47999954   3.77999997  49.81999969
C     9.77999973   4.34999990  49.94999695
C    13.83999920   5.40999985  50.45999908
C    14.50000000   5.00000000  49.27000046
C    15.88000107   5.01999950  49.12000275
C     6.21000004   3.17000008  50.68999863
H     5.79054117   3.53258300  49.75154877
H    10.44000053   3.49000001  48.09000015
H    11.69000053   5.80999947  52.37999725
H     9.35999966   5.40999985  53.26000214
H     7.20000029   4.57999992  52.88000107
H     8.23999977   3.35999990  48.85000229
H    16.34000015   4.67000008  48.20000076
H     5.59999990   3.40999985  51.56999969
H     6.35999966   2.09000015  50.51000214
