96

S    17.48999977   6.24000025  58.69999695
C    20.10000038   6.67999983  57.95000076
C    18.89999962   6.10000038  57.63000107
C    18.51000023   5.60999966  56.33999634
C    19.55999947   5.51000023  55.45000076
C    20.86999893   5.92000008  55.79000092
C    21.96000099   5.50000000  54.97000122
C    23.26999855   5.75999975  55.31000137
C    23.55999947   6.34999990  56.56999969
C    22.56000137   6.61999989  57.47000122
C    21.19999886   6.50000000  57.06999969
C    17.06999969   5.42000008  56.25000000
C    16.35000038   5.71000004  57.43999863
C    14.96999931   5.75999975  57.54000092
C    25.02000046   6.67000008  56.81000137
H    25.40477180   6.22822428  57.72917938
H    20.26000023   7.05999947  58.95999908
H    19.57999992   4.86999989  54.56999969
H    21.73000145   4.97000027  54.05000305
H    24.05999947   5.63000011  54.58000183
H    22.76000023   7.02000046  58.46000290
H    14.48999977   5.93999958  58.50000000
H    25.59999847   6.28999996  55.96000290
H    25.13000107   7.76000023  56.76000214
S    13.88000011   4.53000021  53.90999603
C    11.18000031   4.33999968  54.65000153
C    12.44999981   4.79999971  54.92000198
C    12.81000042   5.36000013  56.18999863
C    11.79999924   5.55000019  57.11999893
C    10.47000027   5.15999985  56.84000015
C     9.44999981   5.32000017  57.81000137
C     8.17000008   4.85000038  57.61000061
C     7.88999987   4.17000008  56.38999939
C     8.80999947   4.05000019  55.38000107
C    10.14000034   4.50000000  55.59999847
C    14.23999977   5.51000023  56.37000275
C    14.93999958   5.07999992  55.21999741
C    16.32999992   5.15999985  55.08999634
C     6.44999981   3.84000015  56.07999802
H     5.98741150   4.45915699  55.31138992
H    11.00000000   3.70000005  53.80000305
H    12.03999996   5.89999962  58.11999893
H     9.72999954   5.69999981  58.79000092
H     7.31999969   5.07000017  58.25000000
H     8.48999977   3.61000013  54.43999863
H    16.81999969   5.07999992  54.12000275
H     5.95000029   3.96000004  57.04999924
H     6.34999990   2.79000020  55.77000046
S    17.78000069   7.09000015  52.34000397
C    20.53999901   6.91999960  51.81999969
C    19.25000000   6.56000042  51.49000168
C    18.92000008   6.06999969  50.19000244
C    19.95000076   5.78000021  49.31000137
C    21.30000114   6.11000013  49.59999847
C    22.32999992   6.10000038  48.61999893
C    23.59999847   6.50000000  48.95999908
C    23.88999939   6.94000006  50.27999878
C    22.89999962   7.07999992  51.23000336
C    21.57999992   6.67000008  50.89000320
C    17.48999977   5.95000029  49.94999695
C    16.73999977   6.47000027  51.04000092
C    15.36000061   6.50000000  51.18000031
C    25.22000122   7.50999975  50.70000076
H    25.61929703   7.13209486  51.64119720
H    20.71000099   7.48000050  52.74000168
H    19.68000031   5.64000034  48.27000046
H    22.15999985   5.86999989  47.56999969
H    24.46000099   6.51000023  48.29999924
H    23.01000214   7.62000036  52.16999817
H    14.93000031   6.94000006  52.08000183
H    25.97999954   7.42999983  49.92000198
H    25.05000114   8.57999992  50.90000153
S    14.40999985   4.67000008  47.77000046
C    11.65999985   4.55000019  48.50000000
C    12.96000004   4.92000008  48.75999832
C    13.27000046   5.55000019  50.00999832
C    12.28999996   5.72000027  50.97999954
C    10.93999958   5.46000004  50.65000153
C     9.86999989   5.65999985  51.56000137
C     8.57999992   5.19000006  51.42000198
C     8.34000015   4.46999979  50.21999741
C     9.26999950   4.38000011  49.20999908
C    10.59999943   4.86000013  49.38000107
C    14.68000031   5.84999990  50.13999939
C    15.43000031   5.38999987  49.02000046
C    16.80999947   5.38999987  48.86000061
C     7.00999975   3.74000025  50.17000198
H     6.43270636   4.34580183  49.47154999
H    11.51999950   3.98000002  47.57999802
H    12.51000023   6.10000038  51.97000122
H    10.17000008   6.09000015  52.50999832
H     7.88999987   5.33999968  52.23999786
H     8.96000004   3.93000007  48.27000046
H    17.38000107   5.05000019  48.00000000
H     6.65000010   3.60000014  51.19999695
H     7.21000004   2.73000002  49.79000092
