96

S    16.29999924   6.48000002  58.20999908
C    18.95000076   6.75000000  57.34000397
C    17.73999977   6.11999989  57.23999786
C    17.39999962   5.35000038  56.07999802
C    18.36000061   5.18000031  55.10000229
C    19.68000031   5.66999960  55.25000000
C    20.76000023   5.22000027  54.43000031
C    22.01999855   5.75000000  54.62999725
C    22.26000023   6.70000029  55.65000153
C    21.28000069   7.04999971  56.56000137
C    19.97999954   6.48000002  56.39999771
C    15.97000027   5.07999992  55.96000290
C    15.25000000   5.66999960  57.04000092
C    13.86999989   5.66999960  57.16999817
C    23.71000099   7.11999989  55.70999908
H    24.28859329   6.53426313  56.42431259
H    19.20999908   7.46000004  58.11999893
H    18.05999947   4.59999990  54.23999786
H    20.62000084   4.59000015  53.55999756
H    22.77000046   5.47999954  53.88999939
H    21.47999954   7.77999973  57.34000397
H    13.30999947   6.02999973  58.02999878
H    24.20000076   7.03999996  54.72999954
H    23.88000107   8.18000031  55.94999695
S    12.71999931   3.98999977  53.80000305
C    10.06000042   3.71000004  54.51000214
C    11.31000042   4.18000031  54.85000229
C    11.67000008   4.88999987  56.04000092
C    10.67000008   5.03000021  56.98999786
C     9.40999985   4.44000006  56.75000000
C     8.46000004   4.42000008  57.80000305
C     7.22000027   3.86999989  57.58999634
C     6.86999989   3.30000019  56.33999634
C     7.73000002   3.32999992  55.27000046
C     9.06000042   3.78999996  55.51000214
C    13.09000015   5.23000002  56.09000397
C    13.81999969   4.72000027  54.99000168
C    15.19999981   4.55000019  54.92000198
C     5.50000000   2.70000005  56.11000061
H     4.98897648   3.09036493  55.22990417
H     9.80000019   3.44000006  53.48999786
H    10.95999908   5.59000015  57.88000107
H     8.73999977   5.07000017  58.62999725
H     6.42000008   4.05000019  58.30999756
H     7.42000008   2.92000008  54.31999969
H    15.64000034   4.21000004  53.99000168
H     4.81999969   2.87999988  56.95000076
H     5.65000010   1.61000001  56.10000229
S    16.69999886   6.37000036  52.51999664
C    19.29999924   6.37000036  51.56000137
C    18.02000046   5.88999987  51.43000031
C    17.59000015   5.40999985  50.14999771
C    18.50000000   5.23000002  49.12000275
C    19.88000107   5.50000000  49.31000137
C    20.86999893   5.33999968  48.30999756
C    22.18000031   5.69000006  48.56999969
C    22.56999969   6.38000011  49.75000000
C    21.61000061   6.53999996  50.72000122
C    20.28000069   6.05999994  50.58000183
C    16.14999962   5.25000000  50.13999939
C    15.57000065   5.60999966  51.38000107
C    14.19000053   5.65999985  51.46999741
C    23.88000107   7.13000011  49.81999969
H    24.56107712   6.71851587  50.56492615
H    19.52999878   7.00000000  52.41000366
H    18.13999939   4.81999969  48.18000031
H    20.56999969   5.03000021  47.30999756
H    22.76000023   5.65000010  47.65999603
H    21.78999901   7.28999996  51.49000168
H    13.76999950   6.00000000  52.42000198
H    24.34999847   7.17999983  48.82999802
H    23.72999954   8.19000053  50.08999634
S    12.89000034   4.30999994  47.90999985
C    10.25000000   4.19999981  48.80000305
C    11.54999924   4.53999996  49.06000137
C    11.97000027   5.05999994  50.31999969
C    11.03000069   5.42000008  51.26999664
C     9.68000031   5.10999966  50.97999954
C     8.71000004   5.46000004  51.95000076
C     7.40000010   5.05999994  51.79000092
C     6.98000002   4.30999994  50.65999985
C     7.90000010   4.00000000  49.68000031
C     9.23999977   4.48000002  49.75999832
C    13.42000008   5.21000004  50.38999939
C    14.04000092   4.80999994  49.18000031
C    15.42000008   4.73000002  49.06000137
C     5.56999969   3.79999995  50.41999817
H     5.29852009   3.90716314  49.36980057
H    10.01000023   3.65000010  47.88999939
H    11.36999989   6.06999969  52.08000183
H     8.97000027   6.05000019  52.81999969
H     6.65999985   5.19999981  52.56999969
H     7.55999994   3.38999987  48.85000229
H    15.88000107   4.28000021  48.18999863
H     4.88000011   4.15000010  51.18999863
H     5.69000006   2.75000000  50.70999908
