96

S    18.05999947   5.71000004  59.06000137
C    20.72000122   6.11000013  58.34999847
C    19.45999908   5.73000002  57.97000122
C    19.11999893   5.31000042  56.63999939
C    20.15999985   5.21000004  55.73999786
C    21.52000046   5.42000008  56.05999756
C    22.56999969   5.33999968  55.11000061
C    23.81000137   5.75999975  55.54000092
C    24.10000038   6.21000004  56.84999847
C    23.09000015   6.19999981  57.77999878
C    21.75000000   5.91000032  57.39999771
C    17.70000076   5.01999950  56.52999878
C    16.97999954   5.32000017  57.70999908
C    15.59000015   5.38000011  57.74000168
C    25.53999901   6.53999996  57.18000031
H    26.00465202   5.82515001  57.85910797
H    20.86000061   6.60000038  59.31000137
H    19.97999954   4.78999996  54.75000000
H    22.34000015   5.13000011  54.06000137
H    24.67000008   5.66999960  54.87999725
H    23.19999886   6.51000023  58.81999969
H    15.03999901   5.51000023  58.67000198
H    26.00000000   6.71999979  56.19999695
H    25.45999908   7.53000021  57.63999939
S    14.50000000   4.67999983  53.99000168
C    11.80999947   4.34999990  54.80999756
C    13.10999966   4.67000008  55.10000229
C    13.45000076   4.97000027  56.45999908
C    12.48000050   5.19999981  57.42000198
C    11.13000011   4.86000013  57.15999985
C    10.03999901   5.13000011  58.04000092
C     8.78999996   4.73000002  57.63000107
C     8.50000000   4.15999985  56.36000061
C     9.51000023   4.07000017  55.43000031
C    10.84000015   4.35999966  55.84000015
C    14.89999962   5.05999994  56.56000137
C    15.62000084   4.85000038  55.35999680
C    17.01000023   4.86999989  55.31999969
C     7.11000013   3.65000010  56.04000092
H     6.63322020   4.09119940  55.16471481
H    11.54999924   4.05999994  53.79000092
H    12.76000023   5.69999981  58.34000015
H    10.29999924   5.42000008  59.05000305
H     7.99000025   4.82999992  58.34999847
H     9.13999939   3.78999996  54.43999863
H    17.46000099   5.22000027  54.40000153
H     6.57000017   3.70000005  56.98999786
H     7.13000011   2.59000015  55.77000046
S    14.70000076   2.38000011  51.11999893
C    12.10000038   1.75999999  51.84999847
C    13.43999958   1.66999996  52.15000153
C    14.01999950   1.13000000  53.34000015
C    13.10999966   0.73000002  54.31000137
C    11.72000027   0.87000000  54.08000183
C    10.72999954   0.41999999  55.00000000
C     9.39000034   0.34999999  54.71000290
C     8.85999966   0.83999997  53.48999786
C     9.77999973   1.34000003  52.58999634
C    11.18000031   1.35000002  52.84000015
C    15.44000053   1.42000008  53.46000290
C    15.97000027   2.10999990  52.34000397
C    17.31999969   2.43000007  52.19999695
C     7.37999964   0.92000002  53.22000122
H     6.93026304   0.07049686  52.70601654
H    11.75000000   2.13000011  50.89000320
H    13.47000027   0.28999999  55.24000168
H    11.16000080  -0.03000000  55.89000320
H     8.75000000  -0.22000000  55.38000107
H     9.46000004   1.93000007  51.72999954
H    17.65999985   3.05000019  51.38000107
H     6.94999981   1.13000000  54.20999908
H     7.20000029   1.80999994  52.60000229
S    18.88000107   0.97999996  55.54999924
C    21.50000000   1.87000012  54.87999725
C    20.15000153   1.76999998  54.61000061
C    19.63999939   2.20000005  53.34000015
C    20.48999977   2.71000004  52.37999725
C    21.87000084   2.82000017  52.67000198
C    22.69000053   3.51000023  51.72999954
C    24.01000023   3.68000007  52.05999756
C    24.59000015   3.05000019  53.18999863
C    23.81999969   2.42000008  54.13000107
C    22.42000198   2.29999995  53.88999939
C    18.19000053   2.04999995  53.22999954
C    17.64000130   1.36999989  54.34000015
C    16.29999924   1.04999995  54.50000000
C    26.07000160   3.21000004  53.47999954
H    26.39063644   2.57585382  54.30653000
H    21.78999901   1.36999989  55.79999924
H    20.12000084   3.16000009  51.45999908
H    22.19000053   3.98000002  50.87999725
H    24.59000015   4.23999977  51.32999802
H    24.21999931   2.17999983  55.11000061
H    15.85000038   0.48999998  55.33000183
H    26.18000031   4.25000000  53.82999802
H    26.63000107   3.14000010  52.54000092
