96

S    17.71000099   6.56000042  58.86000061
C    20.34000015   6.89000034  57.91999817
C    19.05999947   6.44999981  57.70999908
C    18.72999954   5.66999960  56.55000305
C    19.70999908   5.32999992  55.63000107
C    21.01000023   5.86000013  55.80999756
C    22.10000038   5.40000010  55.01999664
C    23.38000107   5.82000017  55.25000000
C    23.74000168   6.67999983  56.32999802
C    22.70999908   7.04999971  57.16999817
C    21.37000084   6.60000038  56.98999786
C    17.28000069   5.51000023  56.58000183
C    16.53000069   5.92999983  57.70000076
C    15.14000034   5.97000027  57.77000046
C    25.15000153   7.18999958  56.51000214
H    25.66211128   6.54985952  57.22837830
H    20.52999878   7.27999973  58.92000198
H    19.55999947   4.72000027  54.73999786
H    21.90999985   4.69000006  54.22000122
H    24.13000107   5.42000008  54.58000183
H    22.98999977   7.63000011  58.04000092
H    14.63000107   6.26999950  58.68000031
H    25.71000099   7.21000004  55.56000137
H    25.17000008   8.23999977  56.84000015
S    14.11000061   4.57999992  54.22999954
C    11.42000008   4.25000000  54.98000336
C    12.71000004   4.61000013  55.31000137
C    12.96000004   5.22000027  56.58000183
C    11.90000057   5.52999973  57.41000366
C    10.59000015   5.07999992  57.15000153
C     9.57999992   5.27999973  58.15000153
C     8.31999969   4.80999994  57.88000107
C     8.07999992   4.11000013  56.65999985
C     9.03999996   3.97000027  55.68999863
C    10.32999992   4.55000019  55.84000015
C    14.39000034   5.51000023  56.68000031
C    15.14999962   5.21000004  55.52000046
C    16.53000069   5.05000019  55.50000000
C     6.75000000   3.47000003  56.33999634
H     6.12339258   4.07524586  55.68490982
H    11.16000080   3.65999985  54.09999847
H    12.15000057   6.15999985  58.27000046
H     9.88000011   5.75000000  59.08000183
H     7.51999950   5.03000021  58.56999969
H     8.82999992   3.40999985  54.79000092
H    17.11000061   4.80999994  54.61000061
H     6.15000010   3.12000012  57.18999863
H     7.00999975   2.54999995  55.80999756
S    18.18000031   6.80000019  52.90999985
C    20.78000069   7.23999977  52.06999969
C    19.52999878   6.75000000  51.75000000
C    19.13999939   6.19000006  50.48999786
C    20.09000015   6.11999989  49.48999786
C    21.42000008   6.52999973  49.73999786
C    22.50999832   6.38000011  48.82999802
C    23.80000114   6.77999973  49.09000015
C    24.07999992   7.46000004  50.30000305
C    23.02999878   7.67000008  51.17000198
C    21.73000145   7.11999989  51.02000427
C    17.69000053   6.07999992  50.43000031
C    17.01000023   6.39999962  51.63000107
C    15.62999916   6.40999985  51.69000244
C    25.42000008   8.14000034  50.45000076
H    26.12503815   7.57027292  51.05533600
H    20.97999954   7.63999987  53.04999924
H    19.84000015   5.77000046  48.48999786
H    22.32000160   5.88999987  47.87000275
H    24.54000092   6.60000038  48.31999969
H    23.21000099   8.34999943  51.98999786
H    15.08999920   6.56000042  52.62000275
H    25.88999939   8.27000046  49.45999908
H    25.26000023   9.18000031  50.73999786
S    14.55000019   4.61000013  48.29000092
C    11.84000015   4.53000021  48.94000244
C    13.12000084   4.90999985  49.29000092
C    13.45000076   5.55000019  50.52000046
C    12.44999981   5.78000021  51.45000076
C    11.14999962   5.27999973  51.19999695
C    10.08999920   5.40999985  52.15000153
C     8.80999947   5.00999975  51.86000061
C     8.46000004   4.59000015  50.54999924
C     9.46000004   4.42999983  49.61000061
C    10.81999969   4.76999998  49.89999771
C    14.86999989   5.86000013  50.65000153
C    15.54999924   5.50000000  49.45999908
C    16.92000008   5.65999985  49.34000015
C     7.05999947   4.15999985  50.20999908
H     6.54691648   4.77284956  49.46887589
H    11.71000004   4.07999992  47.95999908
H    12.67000008   6.17000008  52.43999863
H    10.27999973   5.79999971  53.13999939
H     8.14999962   5.03000021  52.71999741
H     9.19999981   3.98000002  48.66000366
H    17.56000137   5.42000008  48.50000000
H     6.50000000   4.15999985  51.14999771
H     6.98999977   3.15000010  49.78000259
