96

S    18.15000153   6.24000025  58.70999908
C    20.75000000   6.47000027  57.93000031
C    19.47999954   6.11000013  57.54000092
C    19.12999916   5.38999987  56.35000229
C    20.12000084   5.18000031  55.40000153
C    21.44000053   5.59000015  55.66999817
C    22.43999863   5.46999979  54.66999817
C    23.75999832   5.68000031  55.00000000
C    24.03000069   6.34000015  56.23000336
C    23.05999947   6.69000053  57.12999725
C    21.71999931   6.24000025  56.93000031
C    17.70000076   5.15999985  56.24000168
C    17.09000015   5.58000040  57.44999695
C    15.71000004   5.64000034  57.61000061
C    25.43000031   6.85999966  56.44000244
H    26.04247093   6.13358021  56.97413254
H    20.96999931   7.11000013  58.77999878
H    19.86999893   4.92000008  54.38000107
H    22.17000008   5.07999992  53.68999863
H    24.48999786   5.46000004  54.22999954
H    23.35000038   7.35000038  57.95000076
H    15.39999962   5.79999971  58.63999939
H    25.86999893   7.25000000  55.51000214
H    25.30999947   7.72000027  57.11000061
S    14.32000065   4.50000000  54.06999969
C    11.69999981   4.30000019  55.06000137
C    12.98999977   4.75000000  55.21999741
C    13.45999908   5.28999996  56.45999908
C    12.48999977   5.50000000  57.43000031
C    11.13000011   5.13000011  57.31999969
C    10.11000061   5.31000042  58.29999924
C     8.82999992   4.82999992  58.15999985
C     8.42000008   4.26999998  56.91999817
C     9.39000034   4.07000017  55.97000122
C    10.75000000   4.48000002  56.10000229
C    14.91000080   5.42999983  56.47999573
C    15.52000046   5.03000021  55.27000046
C    16.88999939   4.86999989  55.13999939
C     7.04999971   3.67000008  56.75000000
H     6.36944246   4.20877457  56.09070969
H    11.42000008   3.73000002  54.16999817
H    12.75000000   6.11000013  58.29000092
H    10.34999943   5.86000013  59.20000076
H     8.09000015   4.81999969  58.95999908
H     9.03999996   3.61999989  55.04000092
H    17.29999924   4.59000015  54.16999817
H     6.54999971   3.48000002  57.70999908
H     7.11999989   2.70000005  56.24000168
S    18.39999962   6.90000010  52.70999908
C    21.04999924   7.05999947  51.83000183
C    19.73999977   6.75000000  51.56000137
C    19.27000046   6.23000050  50.31000137
C    20.17999840   6.15999985  49.27000046
C    21.54000092   6.46000004  49.51000214
C    22.50999832   6.21000004  48.48999786
C    23.85999870   6.43000031  48.64999771
C    24.23999977   7.05999947  49.86000061
C    23.38000107   7.23000002  50.91999817
C    22.01000023   6.89000034  50.79999924
C    17.81999969   6.02999973  50.30000305
C    17.19000053   6.46000004  51.49000168
C    15.80000019   6.48000002  51.59999847
C    25.66999817   7.53999996  49.99000168
H    26.22687721   6.93314648  50.70394516
H    21.50000000   7.36000013  52.77999878
H    19.85000038   5.63000011  48.37999725
H    22.25000000   5.64000034  47.61000061
H    24.63999939   6.21000004  47.93000031
H    23.77000046   7.55999994  51.88999939
H    15.24000072   6.61999989  52.51999664
H    26.14999962   7.59000015  49.00000000
H    25.61000061   8.56999969  50.37000275
S    14.65000057   5.33999968  47.90000153
C    12.00000000   5.07000017  48.63999939
C    13.25000000   5.53999996  48.96999741
C    13.63999939   5.98000002  50.27999878
C    12.64999962   5.86000013  51.24000168
C    11.35000038   5.32999992  51.03000259
C    10.40999985   5.36000013  52.09999847
C     9.13000011   4.90000010  51.88999939
C     8.88000011   4.38000011  50.59999847
C     9.77999973   4.30000019  49.55999756
C    11.06999969   4.86999989  49.69999695
C    15.06999969   6.15999985  50.45000076
C    15.72000027   5.78999996  49.23999786
C    17.10000038   5.68000031  49.15000153
C     7.50999975   3.75999975  50.45000076
H     6.90466452   4.32972717  49.74496078
H    11.90999985   4.67000008  47.63999939
H    12.92000008   6.17000008  52.25000000
H    10.78999996   5.96000004  52.91999817
H     8.32999992   5.05000019  52.62000275
H     9.46000004   4.07000017  48.54999924
H    17.71999931   5.32999992  48.33000183
H     7.03999996   3.70000005  51.44000244
H     7.55000019   2.73999977  50.05000305
