96

S    18.09999847   6.24000025  58.88999939
C    20.72999954   6.56000042  57.98999786
C    19.43000031   6.19999981  57.71999741
C    19.07999992   5.68000031  56.44000244
C    20.05000114   5.45000029  55.47999954
C    21.40999985   5.78999996  55.73999786
C    22.46000099   5.61999989  54.79000092
C    23.69999886   6.19000006  54.94999695
C    23.97000122   6.88000011  56.16000366
C    23.03999901   6.94999981  57.16999817
C    21.73000145   6.42000008  56.98999786
C    17.63000107   5.52999973  56.40999603
C    16.95000076   5.75999975  57.63000107
C    15.57000065   5.69999981  57.77999878
C    25.31999969   7.49000025  56.45999908
H    25.83565521   6.84719563  57.17344284
H    20.97999954   7.14999962  58.87000275
H    19.86999893   5.07000017  54.48999786
H    22.22999954   5.21000004  53.81000137
H    24.57999992   5.98999977  54.34999847
H    23.23999786   7.37999964  58.15000153
H    14.98999977   5.73000002  58.69999695
H    25.86000061   7.40999985  55.51000214
H    25.29000092   8.55000019  56.70999908
S    14.44000053   4.57999992  54.13999939
C    11.76000023   4.09999990  54.92000198
C    13.00000000   4.63999987  55.18000031
C    13.36999989   5.21000004  56.44000244
C    12.34000015   5.28999996  57.36000061
C    11.00000000   5.00999975  57.02999878
C     9.94000053   5.26000023  57.95000076
C     8.65999985   4.90000010  57.58999634
C     8.30000019   4.23999977  56.38999939
C     9.30999947   4.07000017  55.47999954
C    10.65999985   4.42999983  55.76000214
C    14.80000019   5.36999989  56.65999985
C    15.52000046   5.03999996  55.47999954
C    16.90000153   5.00000000  55.34000015
C     6.93000031   3.63999987  56.13999939
H     6.36873484   4.03785896  55.29454803
H    11.50000000   3.47000003  54.06999969
H    12.51000023   5.58000040  58.39000320
H    10.24000072   5.59999990  58.94000244
H     7.86000013   5.14999962  58.27999878
H     9.17000008   3.35000014  54.66999817
H    17.38000107   4.71000004  54.40999985
H     6.38000011   3.71000004  57.09000015
H     7.11999989   2.56999993  56.05999756
S    14.44000053   2.53999996  50.90999985
C    11.85999966   1.77999997  51.77000046
C    13.22000027   1.79000008  51.95000076
C    13.78000069   1.18000007  53.11999893
C    12.97000027   0.52999997  54.03999710
C    11.56000042   0.54000002  53.92000198
C    10.69000053   0.07000000  54.94999695
C     9.32999992   0.17999999  54.79000092
C     8.78999996   0.78000003  53.61999893
C     9.61999989   1.39999998  52.70999908
C    11.03000069   1.28999996  52.81000137
C    15.21999931   1.38000000  53.20999908
C    15.65999985   2.22000003  52.15999985
C    17.00000000   2.59000015  52.09000015
C     7.28999996   0.97000003  53.61999893
H     6.80094194   0.36753708  52.85451889
H    11.35000038   2.16999984  50.89000320
H    13.42000008   0.31000000  55.00000000
H    11.16000080  -0.34999999  55.83000183
H     8.65999985  -0.16000001  55.58000183
H     9.22000027   1.98000002  51.86999893
H    17.31999969   3.10999990  51.18999863
H     6.86999989   0.71999997  54.59999847
H     6.94999981   2.00000000  53.47999954
S    18.71999931   0.93000001  55.30000305
C    21.31000137   1.77999997  54.50000000
C    19.96000099   1.63000000  54.23999786
C    19.34999847   2.16999984  53.06999969
C    20.19000053   2.71000004  52.11999893
C    21.57999992   2.86000013  52.29999924
C    22.55000114   3.38000011  51.38999939
C    23.88000107   3.58999991  51.66999817
C    24.41999817   3.19000006  52.90999985
C    23.54000092   2.56999993  53.76999664
C    22.14999962   2.38000011  53.53000259
C    17.88999939   2.09999990  53.04999924
C    17.42000008   1.36999989  54.16999817
C    16.09000015   0.97000003  54.22999954
C    25.90999985   3.28000021  53.15999985
H    26.27333260   2.98078465  54.14313889
H    21.83000183   1.46000004  55.40000153
H    19.76000023   3.02999997  51.17000198
H    22.04999924   3.58999991  50.45000076
H    24.51999855   4.11999989  50.96000290
H    24.06999969   2.16999984  54.62999725
H    15.67999935   0.41000003  55.06000137
H    26.32999802   4.26999998  52.95000076
H    26.27000046   2.57999992  52.38999939
