96

S    17.36999893   6.38999987  58.57999802
C    20.05000114   6.43000031  57.84000015
C    18.73999977   6.21999979  57.47000122
C    18.43000031   5.71000004  56.16000366
C    19.38999939   5.46000004  55.20000076
C    20.71000099   5.82999992  55.54000092
C    21.70000076   5.86999989  54.51000214
C    22.88000107   6.53999996  54.73999786
C    23.21000099   7.00999975  56.03000259
C    22.32999992   6.90999985  57.09000015
C    21.04000092   6.34999990  56.83000183
C    17.01000023   5.44000053  56.04000092
C    16.36999893   5.73999977  57.27000427
C    14.98999977   5.61999989  57.43000031
C    24.60000038   7.53000021  56.33999634
H    25.03497314   7.03798056  57.20994949
H    20.36999893   6.85999966  58.79000092
H    19.29000092   5.00999975  54.22000122
H    21.56999969   5.32999992  53.57999802
H    23.72999954   6.34999990  54.08000183
H    22.55000114   7.37999964  58.04000092
H    14.42999935   5.88999987  58.31999969
H    25.23999977   7.35000038  55.47000122
H    24.63000107   8.63000011  56.38999939
S    13.66000080   4.13000011  54.08000183
C    11.03999996   3.91000009  55.04000092
C    12.30999947   4.41000032  55.19000244
C    12.72999954   5.07000017  56.38999939
C    11.76000023   5.36000013  57.32999802
C    10.42000008   4.94999981  57.12999725
C     9.35000038   5.32999992  57.97999954
C     8.05000019   4.90999985  57.78999710
C     7.73999977   3.91999984  56.81999969
C     8.71999931   3.61000013  55.90000153
C    10.05000019   4.09000015  56.04000092
C    14.17000008   5.26999998  56.35000229
C    14.85000038   4.84000015  55.19000244
C    16.21999931   4.99000025  54.97000122
C     6.32999992   3.38000011  56.70999908
H     5.86639309   3.85787225  55.84697723
H    10.77000046   3.37000012  54.13999939
H    12.06999969   5.86999989  58.23999786
H     9.56999969   6.01000023  58.80000305
H     7.30000019   5.14999962  58.54000092
H     8.43000031   3.01999998  55.02999878
H    16.80999947   4.61999989  54.15000153
H     5.69999981   3.51999998  57.58999634
H     6.48999977   2.30999994  56.51000214
S    17.79000092   7.00000000  52.76000214
C    20.55000114   7.25000000  51.93000031
C    19.25000000   6.81999969  51.76000214
C    18.86999893   6.12999964  50.56000137
C    19.81999969   5.95000029  49.58000183
C    21.17000198   6.35999966  49.72999954
C    22.20999908   6.30000019  48.75999832
C    23.54000092   6.56000042  49.00000000
C    23.87000084   7.07000017  50.27999878
C    22.93000031   7.23000002  51.26999664
C    21.56999969   6.90000010  51.00999832
C    17.43000031   5.95000029  50.43000031
C    16.65999985   6.40999985  51.52000046
C    15.26999950   6.42000008  51.60999680
C    25.15000153   7.86000013  50.40000153
H    25.68239594   7.34889936  51.20214462
H    20.76999855   7.82999992  52.81000137
H    19.51000023   5.42000008  48.68000031
H    22.00000000   6.06999969  47.71999741
H    24.20000076   6.71000004  48.15000153
H    23.12000084   7.88999987  52.11000061
H    14.75999928   6.51999998  52.56000137
H    25.71000099   7.90000010  49.45999908
H    24.84999847   8.85000038  50.77000046
S    14.32000065   4.90999985  48.01000214
C    11.65999985   4.61999989  48.75000000
C    12.90999985   5.07999992  49.08000183
C    13.19000053   5.59999990  50.38999939
C    12.20000076   5.66999960  51.33999634
C    10.95000076   5.07999992  51.04000092
C     9.98999977   4.96000004  52.08000183
C     8.78999996   4.35999966  51.77000046
C     8.50000000   3.76999998  50.51000214
C     9.44999981   3.84000015  49.51000214
C    10.62000084   4.61999989  49.72000122
C    14.60000038   5.97000027  50.45999908
C    15.32999992   5.55000019  49.31999969
C    16.72000122   5.51000023  49.29999924
C     7.17000008   3.05999994  50.37000275
H     6.49211597   3.55949306  49.67784500
H    11.51999950   3.98000002  47.88000107
H    12.41000080   6.06999969  52.32999802
H    10.13000011   5.49000025  53.02000046
H     8.05999947   4.17000008  52.55000305
H     9.43000031   3.23000002  48.61000061
H    17.28999901   5.19000006  48.43999863
H     6.78999996   3.09999990  51.39999771
H     7.28999996   2.07999992  49.87999725
