96

S    18.17000008   6.25999975  58.92000198
C    20.85000038   6.48999977  58.16999817
C    19.60000038   5.96000004  57.91999817
C    19.23999977   5.42000008  56.65000153
C    20.19000053   5.40999985  55.63999939
C    21.48999977   5.91000032  55.84999847
C    22.53999901   5.75999975  54.89999771
C    23.84000015   6.12999964  55.15999603
C    24.10000038   6.70000029  56.43000031
C    23.12999916   6.97000027  57.36999893
C    21.83000183   6.44000006  57.15000153
C    17.79999924   5.36000013  56.46999741
C    17.07999992   5.91000032  57.56000137
C    15.70000076   6.02999973  57.58999634
C    25.52000046   7.02000046  56.86000061
H    25.78301048   6.39446068  57.71300888
H    21.04999924   6.98999977  59.10999680
H    19.85000038   4.99000025  54.69999695
H    22.32000160   5.28999996  53.95000076
H    24.65999985   6.00000000  54.45999908
H    23.28000069   7.44999981  58.34000015
H    15.15999985   6.25000000  58.50000000
H    26.18000031   6.65999985  56.05999756
H    25.72000122   8.05000019  57.18000031
S    14.53999996   4.55999994  54.13999939
C    11.85999966   4.46999979  54.84000397
C    13.12000084   4.94000006  55.13999939
C    13.47000027   5.51999998  56.39999771
C    12.48000050   5.65000010  57.36000061
C    11.17000008   5.23000002  57.05999756
C    10.06999969   5.42000008  57.95000076
C     8.78000069   5.03999996  57.67000198
C     8.48999977   4.36999989  56.45000076
C     9.47000027   4.32000017  55.48999786
C    10.81999969   4.69000006  55.77000046
C    14.92000008   5.66999960  56.47999573
C    15.65999985   5.18000031  55.37000275
C    17.02999878   5.00999975  55.34999847
C     7.04999971   4.01999998  56.16000366
H     6.72311783   4.40373087  55.19356918
H    11.69999981   3.81000018  53.99000168
H    12.76999950   6.17000008  58.27000046
H    10.22999954   5.88999987  58.92000198
H     7.94000053   5.23999977  58.33000183
H     9.19999981   3.86000013  54.54000092
H    17.38999939   4.61000013  54.40000153
H     6.46000004   4.41000032  56.98999786
H     7.00999975   2.93000007  56.04000092
S    14.57999992   2.49000001  50.96000290
C    11.97000027   1.80999994  51.77000046
C    13.32999992   1.74000001  51.97999954
C    13.81999969   1.07000005  53.13999939
C    12.97999954   0.56000000  54.12000275
C    11.57999992   0.68000007  53.95000076
C    10.55999947   0.28000000  54.86000061
C     9.22000027   0.51999998  54.68999863
C     8.75000000   1.14999998  53.50999832
C     9.68999958   1.44999993  52.54000092
C    11.09000015   1.28999996  52.74000168
C    15.26000023   1.25999999  53.26000214
C    15.80000019   1.90999997  52.11999893
C    17.14999962   2.17999983  52.00000000
C     7.32999992   1.51999998  53.15000153
H     6.71976566   0.81752074  52.58234406
H    11.59000015   2.39999986  50.93000031
H    13.42000008  -0.19999999  54.75999832
H    10.90000057  -0.28999999  55.72000122
H     8.56999969   0.16000001  55.48999786
H     9.34000015   1.86000001  51.59999847
H    17.61000061   2.61999989  51.11999893
H     6.84000015   1.65000010  54.13000107
H     7.40000010   2.45000005  52.58999634
S    18.61999893   1.11000001  55.58000183
C    21.21999931   1.62000000  54.84000397
C    19.88999939   1.69000006  54.48999786
C    19.37999916   2.20000005  53.25000000
C    20.32999992   2.75999999  52.43000031
C    21.71999931   2.75000000  52.72999573
C    22.63999939   3.42000008  51.88000107
C    23.98999977   3.40000010  52.15000153
C    24.47999954   2.76999998  53.33000183
C    23.59000015   2.20000005  54.20000076
C    22.19000053   2.14000010  53.94000244
C    17.94999886   1.94000006  53.11999893
C    17.43000031   1.29999995  54.27999878
C    16.07999992   0.97999996  54.36000061
C    25.96999931   2.59000015  53.52000427
H    26.25409508   2.63971686  54.57115555
H    21.59000015   1.08000004  55.70000076
H    19.93000031   2.98000002  51.44000244
H    22.37999916   3.81000018  50.90000153
H    24.64999962   3.68000007  51.33999634
H    23.90000153   1.80999994  55.15999603
H    15.72999954   0.57999998  55.30000305
H    26.47000122   3.35999990  52.91999817
H    26.32999802   1.62000000  53.15000153
