96

S    17.52000046   6.28000021  58.88000107
C    20.22999954   6.46000004  58.13000107
C    18.96000099   5.98000002  57.88999939
C    18.56999969   5.42000008  56.63000107
C    19.55000114   5.31000042  55.65000153
C    20.88000107   5.73000002  55.90000153
C    21.94999886   5.38999987  55.02999878
C    23.26999855   5.64000034  55.31999969
C    23.64000130   6.32999992  56.50000000
C    22.60999870   6.69000053  57.34000397
C    21.24000168   6.34999990  57.14000320
C    17.14999962   5.19000006  56.42000198
C    16.48999977   5.66999960  57.56999969
C    15.10000038   5.69999981  57.61000061
C    25.06999969   6.75000000  56.77000046
H    25.66567802   6.09049988  57.40113068
H    20.52999878   6.83000040  59.09999847
H    19.29000092   4.71000004  54.78000259
H    21.68999863   4.86000013  54.12000275
H    24.09000015   5.33999968  54.65999985
H    22.92000008   7.26999998  58.20000076
H    14.63000107   5.80999947  58.57999802
H    25.53999901   6.98999977  55.80999756
H    25.06999969   7.73000002  57.25999832
S    14.02999973   3.77999997  54.22999954
C    11.31000042   3.91999984  54.77000427
C    12.58999920   4.30999994  55.13000107
C    12.97999954   4.88000011  56.38000107
C    11.92000008   5.22000027  57.21000290
C    10.57999992   4.88999987  56.90999985
C     9.52000046   5.09000015  57.84000015
C     8.27999973   4.55000019  57.60000229
C     7.97999954   3.88000011  56.38999939
C     8.97999954   3.60000014  55.48999786
C    10.27999973   4.13999987  55.72000122
C    14.39000034   5.19000006  56.51000214
C    15.06999969   4.63000011  55.40000153
C    16.45000076   4.65999985  55.31999969
C     6.60000038   3.38999987  56.02000427
H     5.95979404   4.08711290  55.47938538
H    10.98999977   3.35000014  53.90999603
H    12.18000031   5.64000034  58.18000031
H     9.84000015   5.36999989  58.83999634
H     7.53999996   4.77999973  58.36000061
H     8.85000038   3.05000019  54.55999756
H    16.97000122   4.25000000  54.45999908
H     6.15999985   3.16000009  57.00000000
H     6.60000038   2.40999985  55.51000214
S    13.88000011   2.00000000  51.02000427
C    11.28999901   1.12000000  51.72999954
C    12.64999962   1.15999997  51.97999954
C    13.22000027   0.56999999  53.15000153
C    12.44999981  -0.04000000  54.12000275
C    11.05000019  -0.11000000  53.87000275
C    10.14000034  -0.51999998  54.88999939
C     8.78000069  -0.41000003  54.68000031
C     8.18000031  -0.05000000  53.43999863
C     9.06999969   0.45000002  52.50999832
C    10.47999954   0.46000001  52.69000244
C    14.65000057   0.82999998  53.29000092
C    15.14000034   1.59999990  52.21000290
C    16.46000099   2.03999996  52.18999863
C     6.69000053   0.09000000  53.26000214
H     6.26292324  -0.37266687  52.37025833
H    10.78999996   1.65000010  50.93000031
H    12.79999924  -0.05000000  55.14999771
H    10.60999966  -0.81000000  55.81999969
H     8.17000008  -0.63000000  55.54999924
H     8.80999947   1.05999994  51.65000153
H    16.82999992   2.56000018  51.31000137
H     6.05000019  -0.17999999  54.10999680
H     6.48000002   1.14999998  53.06999969
S    18.04000092   0.41999999  55.45000076
C    20.62999916   1.16999996  54.62999725
C    19.27999878   1.04999995  54.36000061
C    18.79999924   1.70000005  53.18000031
C    19.64999962   2.19000006  52.19999695
C    21.05999947   2.17999983  52.35000229
C    21.94999886   2.75000000  51.39999771
C    23.26000023   2.79999995  51.81000137
C    23.77000046   2.14000010  52.95999908
C    22.88999939   1.48000002  53.79000092
C    21.48999977   1.65000010  53.61000061
C    17.35000038   1.59999990  53.16999817
C    16.79999924   0.90000004  54.27000046
C    15.51000023   0.38000000  54.29000092
C    25.25000000   1.95999992  53.23999786
H    25.57720947   2.54328561  54.10070038
H    21.09000015   0.71000004  55.50000000
H    19.20999908   2.61000013  51.30000305
H    21.67000008   3.26999998  50.48999786
H    23.98999977   3.22000003  51.12999725
H    23.19000053   0.92000002  54.68000031
H    15.13000011  -0.23000000  55.10000229
H    25.82999992   2.32999992  52.38999939
H    25.45999908   0.88999999  53.39000320
