96

S    18.06999969   6.61999989  58.57999802
C    20.72999954   6.71999979  57.87000275
C    19.47999954   6.19000006  57.58999634
C    19.11000061   5.40000010  56.45999908
C    20.10999870   5.22000027  55.52000046
C    21.42999840   5.66999960  55.79000092
C    22.44999886   5.36999989  54.85000229
C    23.72999954   5.73999977  55.17000198
C    24.07999992   6.40999985  56.38000107
C    23.12000084   6.74000025  57.29999924
C    21.78999901   6.34000015  57.01000214
C    17.67000008   5.23000002  56.38000107
C    16.95000076   5.82000017  57.44999695
C    15.57000065   5.98999977  57.43999863
C    25.48000145   6.86999989  56.72000122
H    25.81362915   6.30922174  57.59311295
H    20.85000038   7.31999969  58.76999664
H    19.97999954   4.76000023  54.54000092
H    22.25000000   4.88000011  53.89999771
H    24.44000053   5.52999973  54.36999893
H    23.22999954   7.37999964  58.18000031
H    14.98999977   6.17000008  58.34000015
H    26.14000130   6.63999987  55.86999893
H    25.55000114   7.94000053  56.93999863
S    14.56999969   4.30000019  53.92000198
C    11.87999916   4.19999981  54.59000015
C    13.15000057   4.61999989  54.93000031
C    13.50000000   5.21000004  56.18999863
C    12.46999931   5.32000017  57.11000061
C    11.14999962   4.92000008  56.79000092
C    10.05000019   5.27999973  57.62000275
C     8.78000069   4.85000038  57.29999924
C     8.52000046   4.21999979  56.04999924
C     9.52000046   3.84999990  55.19000244
C    10.81999969   4.32999992  55.52000046
C    14.93000031   5.44000053  56.31999969
C    15.62999916   4.92000008  55.20999908
C    17.02000046   4.88999987  55.19000244
C     7.14999962   3.65000010  55.77000046
H     6.62945700   4.15628147  54.95709610
H    11.75000000   3.91000009  53.54999924
H    12.69999981   5.95000029  57.95999908
H    10.24000072   5.77000046  58.57999802
H     7.92000008   4.84000015  57.97000122
H     9.30000019   3.30000019  54.27000046
H    17.53000069   4.55999994  54.27999878
H     6.53999996   3.68000007  56.68000031
H     7.20000029   2.56999993  55.54000092
S    14.68999958   2.50000000  50.96000290
C    12.13000107   1.58000004  51.62000275
C    13.48000050   1.62000000  51.90999985
C    14.01000023   1.04999995  53.11000061
C    13.19000053   0.37000000  53.99000168
C    11.79999924   0.32000002  53.74000168
C    10.92000008  -0.17000002  54.75000000
C     9.56999969   0.01000000  54.61000061
C     9.02000046   0.69999999  53.48999786
C     9.85999966   1.12000000  52.49000168
C    11.26999950   0.93000001  52.55000305
C    15.44000053   1.28999996  53.22999954
C    15.93000031   2.06999993  52.15999985
C    17.27000046   2.43000007  52.19999695
C     7.51999950   0.83999997  53.33000183
H     7.19329119   0.51329148  52.34277344
H    11.73999977   2.22000003  50.84000015
H    13.52000046  -0.06000000  54.93000031
H    11.26000023  -0.39999998  55.76000214
H     8.97999954  -0.19000000  55.50000000
H     9.44000053   1.56000006  51.59000015
H    17.79000092   2.93000007  51.38999939
H     7.18999958   0.19999999  54.15000153
H     7.11000013   1.85000002  53.50000000
S    18.79999924   0.94999999  55.56999969
C    21.42000008   1.51999998  54.81999969
C    20.09000015   1.51999998  54.48999786
C    19.56999969   2.16000009  53.31999969
C    20.45000076   2.66000009  52.38999939
C    21.84999847   2.54999995  52.58999634
C    22.78000069   3.16000009  51.70000076
C    24.11000061   2.99000001  52.01000214
C    24.57999992   2.37000012  53.20000076
C    23.69999886   1.99000001  54.18000031
C    22.30999947   2.07999992  53.87000275
C    18.12000084   2.04999995  53.25000000
C    17.57999992   1.31999993  54.34000015
C    16.25000000   0.93000001  54.31999969
C    26.07000160   2.32999992  53.46000290
H    26.32651329   3.15654802  54.12266541
H    21.80000114   1.13000000  55.76000214
H    19.96000099   2.96999979  51.46999741
H    22.43000031   3.70000005  50.83000183
H    24.86999893   3.30999994  51.31000137
H    24.13999939   1.62000000  55.10000229
H    15.85000038   0.39999998  55.18000031
H    26.70000076   2.40999985  52.56999969
H    26.35999870   1.38999999  53.93000031
