96

S    17.90999985   6.34999990  58.79000092
C    20.55000114   6.63000011  58.04999924
C    19.29000092   6.21999979  57.68000031
C    18.86999893   5.78999996  56.37000275
C    19.93999863   5.59999990  55.52999878
C    21.25999832   6.00000000  55.84999847
C    22.27999878   5.89999962  54.86000061
C    23.57000160   6.17999983  55.22999573
C    23.95000076   6.65000010  56.52000046
C    22.98999977   6.70000029  57.50999832
C    21.63999939   6.39999962  57.18000031
C    17.42000008   5.73999977  56.24000168
C    16.77000046   6.03999996  57.47000122
C    15.39999962   5.91000032  57.64999771
C    25.38000107   7.03999996  56.81000137
H    25.70665550   6.46480513  57.67634201
H    20.76000023   7.03000021  59.03999710
H    19.72999954   5.22000027  54.52999878
H    22.00000000   5.66999960  53.82999802
H    24.36000061   6.21999979  54.47999954
H    23.15999985   7.09999990  58.50999832
H    14.93000031   6.15999985  58.60000229
H    26.07999992   6.76999998  56.00999832
H    25.43000031   8.13000011  56.90000153
S    14.28999996   4.73000002  53.95999908
C    11.59000015   4.63999987  54.66999817
C    12.89000034   4.88000011  55.05000305
C    13.25000000   5.27999973  56.37000275
C    12.18999958   5.46999979  57.23999786
C    10.82999992   5.25000000  56.90000153
C     9.85000038   5.47999954  57.90999985
C     8.52999973   5.21000004  57.64999771
C     8.18000031   4.72000027  56.36000061
C     9.13000011   4.55000019  55.38000107
C    10.52999973   4.75000000  55.59000015
C    14.68999958   5.42999983  56.55000305
C    15.34000015   5.09999990  55.33000183
C    16.72000122   5.17000008  55.17000198
C     6.78999996   4.15999985  56.18999863
H     6.21216393   4.78063869  55.50515366
H    11.42000008   4.26000023  53.66000366
H    12.35000038   5.75000000  58.27999878
H    10.18000031   5.84999990  58.88000107
H     7.90000010   5.26999998  58.53000259
H     8.82999992   4.19000006  54.40000153
H    17.17000008   4.78999996  54.25000000
H     6.32999992   4.21999979  57.18000031
H     6.84999990   3.07999992  55.97999954
S    15.06000042   2.86000013  51.04999924
C    12.42000008   2.22000003  51.60999680
C    13.73999977   2.10999990  51.97000122
C    14.21000004   1.53999996  53.20000076
C    13.27999973   1.13000000  54.13999939
C    11.90000057   1.22000003  53.85000229
C    10.85000038   0.73000002  54.68000031
C     9.53999996   0.87000000  54.31000137
C     9.19000053   1.54999995  53.11999893
C    10.13000011   2.01999998  52.22999954
C    11.49000072   1.82999992  52.61000061
C    15.64000034   1.72000003  53.36999893
C    16.26000023   2.38000011  52.27000427
C    17.60000038   2.73000002  52.22000122
C     7.73000002   1.90999997  52.94000244
H     7.19168091   1.35043144  52.17502213
H    12.10000038   2.54999995  50.63000107
H    13.68000031   0.79000002  55.10000229
H    11.10999966   0.20999999  55.59999847
H     8.76000023   0.46000001  54.94999695
H     9.78999996   2.45000005  51.29000092
H    18.05999947   3.12999988  51.31999969
H     7.23000002   1.74000001  53.89999771
H     7.69000006   2.99000001  52.74000168
S    18.97999954   1.41000009  55.70000076
C    21.68999863   1.94999993  54.94999695
C    20.34000015   2.00000000  54.72000122
C    19.82999992   2.56000018  53.50000000
C    20.71000099   3.08999991  52.56999969
C    22.11000061   3.00000000  52.77999878
C    23.03999901   3.50000000  51.83000183
C    24.37999916   3.42999983  52.11999893
C    24.89000130   3.07000017  53.40000153
C    23.98999977   2.61000013  54.34000015
C    22.62000084   2.44000006  54.00000000
C    18.38999939   2.44000006  53.34000015
C    17.78000069   1.80999994  54.45000076
C    16.42000008   1.50999999  54.51000214
C    26.28999901   3.51999998  53.74000168
H    26.68086243   2.85197949  54.50751495
H    22.10000038   1.74000001  55.93000031
H    20.40999985   3.51000023  51.62000275
H    22.67000008   4.02999973  50.94999695
H    25.02000046   3.88999987  51.37000275
H    24.34999847   2.20000005  55.27999878
H    15.90000057   0.96000004  55.28999710
H    26.28999901   4.48999977  54.25000000
H    27.01000023   3.78999996  52.95999908
