96

S    16.95999908   4.67999983  59.02999878
C    19.64999962   4.97000027  58.22999954
C    18.37000084   4.53999996  57.97000122
C    17.97000122   4.07000017  56.68000031
C    18.96999931   3.91000009  55.72999954
C    20.30999947   4.30000019  55.98999786
C    21.35999870   4.17000008  55.02999878
C    22.67000008   4.51999998  55.25000000
C    22.98000145   5.00999975  56.55000305
C    22.01999855   5.29999971  57.48000336
C    20.65999985   4.92999983  57.22999954
C    16.53000069   4.00000000  56.46999741
C    15.85999966   4.33999968  57.67000198
C    14.47999954   4.51999998  57.68000031
C    24.37000084   5.52999973  56.84999847
H    24.79767990   5.03104067  57.71961212
H    19.88000107   5.36000013  59.20999908
H    18.76000023   3.61999989  54.71000290
H    21.02000046   3.81999993  54.06000137
H    23.36000061   4.55999994  54.40999985
H    22.34999847   5.65000010  58.44999695
H    14.02999973   5.01999950  58.53000259
H    24.93999863   5.44000053  55.90999985
H    24.31999969   6.57999992  57.15999985
S    13.25000000   3.45000005  54.10999680
C    10.57999992   3.40000010  54.85000229
C    11.87000084   3.76999998  55.17000198
C    12.23999977   4.13999987  56.50000000
C    11.21000099   4.26999998  57.41000366
C     9.89000034   3.84000015  57.14000320
C     8.80999947   3.97000027  58.06000137
C     7.55000019   3.51999998  57.74000168
C     7.27999973   2.93000007  56.47999573
C     8.19999981   3.07000017  55.47000122
C     9.52000046   3.47000003  55.79000092
C    13.68999958   4.13999987  56.59000015
C    14.40000057   3.74000025  55.43000031
C    15.78999996   3.63999987  55.34000015
C     5.84000015   2.63000011  56.11000061
H     5.50528479   3.22821474  55.26253128
H    10.36000061   2.94000006  53.88999939
H    11.42000008   4.55999994  58.43999863
H     8.94999981   4.46000004  59.02000046
H     6.75000000   3.71000004  58.43999863
H     7.96999979   2.79000020  54.43999863
H    16.36000061   3.37000012  54.45999908
H     5.05999994   2.72000027  56.86999893
H     5.86999989   1.58000004  55.77999878
S    13.75000000   1.43999994  51.05999756
C    11.05999947   1.19000006  51.75000000
C    12.38000011   0.92000002  52.04999924
C    12.71999931   0.25000000  53.27000046
C    11.77999973  -0.34000003  54.09999847
C    10.43000031  -0.00000000  53.83999634
C     9.42000008  -0.63000000  54.62999725
C     8.11999989  -0.50999999  54.20000076
C     7.69999981   0.23000000  53.06999969
C     8.69000053   0.75999999  52.27000427
C    10.06999969   0.65999997  52.61000061
C    14.15999985   0.35999998  53.43999863
C    14.85000038   1.03999996  52.39999771
C    16.18999863   1.38000000  52.36000061
C     6.25000000   0.34999999  52.67000198
H     6.07247496  -0.18967673  51.73976898
H    10.90000057   1.65999997  50.79000092
H    11.90000057  -0.96000004  54.98000336
H     9.75000000  -1.24000001  55.47000122
H     7.30000019  -0.97999996  54.73999786
H     8.43000031   1.23000002  51.32999802
H    16.70999908   1.66999996  51.45000076
H     5.65000010  -0.07000000  53.48999786
H     5.96000004   1.38999999  52.47000122
S    17.52000046  -0.17999999  55.72000122
C    20.19000053   0.29999998  55.07999802
C    18.86999893   0.51999998  54.79999924
C    18.39999962   1.02999997  53.54000092
C    19.36000061   1.46000004  52.63999939
C    20.75000000   1.41000009  52.88000107
C    21.73999977   1.94999993  52.01000214
C    23.05000114   1.82999992  52.41000366
C    23.40999985   1.26999998  53.66000366
C    22.47999954   0.75999999  54.54999924
C    21.11999893   0.83999997  54.15000153
C    16.95000076   0.96000004  53.47000122
C    16.31999969   0.16000001  54.45000076
C    14.96000099  -0.13000000  54.47000122
C    24.87999916   1.02999997  53.92000198
H    25.19998169   1.25754213  54.93682861
H    20.51000214  -0.32999998  55.90999985
H    19.04000092   1.92000008  51.70999908
H    21.47000122   2.47000003  51.09000397
H    23.84000015   2.31999993  51.84999847
H    22.72999954   0.28000000  55.48999786
H    14.52000046  -0.75999999  55.22999573
H    25.40999985   1.64000010  53.18000031
H    24.99000168  -0.06000000  53.83999634
