96

S    16.95999908   4.99000025  58.70999908
C    19.63999939   5.15999985  58.06000137
C    18.38999939   4.71000004  57.70000076
C    18.06999969   4.17000008  56.42000198
C    19.11000061   4.02999973  55.52000046
C    20.42000008   4.46999979  55.80999756
C    21.47999954   4.42999983  54.86999893
C    22.76000023   4.86000013  55.13999939
C    23.01000214   5.47999954  56.39999771
C    22.00000000   5.52999973  57.32999802
C    20.68000031   5.07000017  57.09999847
C    16.61999893   4.19999981  56.22000122
C    15.88000107   4.65000010  57.34000397
C    14.50000000   4.81999969  57.44999695
C    24.40000153   5.92999983  56.81999969
H    24.73505211   5.42385864  57.72535324
H    19.73999977   5.73000002  58.97999573
H    18.96999931   3.51000023  54.58000183
H    21.15999985   4.13000011  53.87000275
H    23.50000000   4.82999992  54.34999847
H    22.18000031   5.97000027  58.30999756
H    14.09000015   5.13999987  58.40999985
H    25.12000084   5.68000031  56.03000259
H    24.31999969   7.00000000  57.02000046
S    13.31999969   3.75000000  53.85000229
C    10.55999947   3.68999982  54.59999847
C    11.87999916   3.95000005  54.87999725
C    12.28999996   4.42000008  56.16000366
C    11.31000042   4.72000027  57.09000015
C     9.94999981   4.39000034  56.86999893
C     8.93999958   4.50000000  57.85999680
C     7.65999985   4.19000006  57.47000122
C     7.25000000   3.75000000  56.18999863
C     8.22000027   3.58999991  55.21999741
C     9.56999969   3.79999995  55.61000061
C    13.73999977   4.51999998  56.31999969
C    14.45000076   4.07000017  55.18000031
C    15.84000015   4.02999973  55.06999969
C     5.86000013   3.19999981  55.97000122
H     5.39665127   3.79878879  55.18587112
H    10.36999893   3.19999981  53.64999771
H    11.59999943   5.00999975  58.09999847
H     9.26000023   4.84000015  58.83999634
H     6.90999985   4.17000008  58.26000214
H     8.01999950   3.14000010  54.25000000
H    16.28000069   3.65000010  54.15999985
H     5.22000027   3.24000001  56.84999847
H     5.97000027   2.14000010  55.66999817
S    17.46000099   5.46999979  52.56000137
C    20.15000153   5.40999985  51.84000015
C    18.85000038   5.09999990  51.51000214
C    18.43000031   4.59999990  50.22999573
C    19.40999985   4.44000006  49.27000046
C    20.76999855   4.65000010  49.59000015
C    21.83000183   4.51999998  48.64999771
C    23.13999939   4.80999994  48.95000076
C    23.46999931   5.25000000  50.26000214
C    22.50999832   5.45000029  51.23000336
C    21.17000198   5.14999962  50.87999725
C    16.97999954   4.59000015  50.12000275
C    16.31000137   5.10999966  51.25000000
C    14.93999958   5.33999968  51.32999802
C    24.86999893   5.68000031  50.65000153
H    25.45343590   5.03252888  51.30458832
H    20.45999908   5.80999947  52.80000305
H    19.19999886   4.05999994  48.27000046
H    21.60000038   4.09999990  47.67000198
H    24.00000000   4.74000025  48.29000092
H    22.60000038   6.09000015  52.11000061
H    14.50000000   5.61999989  52.28000259
H    25.34000015   6.10000038  49.75000000
H    24.72999954   6.54999971  51.30000305
S    13.71999931   4.15999985  47.71999741
C    11.03999996   4.21999979  48.39000320
C    12.32999992   4.44999981  48.79000092
C    12.74000072   4.94999981  50.06999969
C    11.75000000   5.25000000  51.00000000
C    10.43000031   4.85000038  50.66999817
C     9.42000008   4.94000006  51.65999985
C     8.10000038   4.59999990  51.50000000
C     7.79999971   4.00000000  50.25000000
C     8.69000053   3.93000007  49.20000076
C    10.03000069   4.38000011  49.36999893
C    14.19000053   5.01999950  50.19000244
C    14.85000038   4.53000021  49.03999710
C    16.21000099   4.23000002  49.01000214
C     6.35999966   3.63000011  50.00999832
H     5.87053776   4.16202402  49.19422913
H    10.81999969   3.75999975  47.43000031
H    11.98999977   5.59000015  52.00000000
H     9.80000019   5.13000011  52.67000198
H     7.35000038   4.56999969  52.28000259
H     8.42000008   3.37000012  48.30999756
H    16.69999886   3.89999986  48.09000015
H     5.79999971   3.79999995  50.93999863
H     6.28999996   2.56999993  49.72999954
