96

S    17.12000084   4.92000008  58.95000076
C    19.82999992   5.09000015  58.27000046
C    18.53999901   4.78999996  57.88999939
C    18.17000008   4.41000032  56.56000137
C    19.14999962   4.33999968  55.59000015
C    20.51000214   4.53999996  55.91999817
C    21.55999947   4.38000011  54.97000122
C    22.86999893   4.48000002  55.38000107
C    23.19999886   4.90999985  56.69000244
C    22.20000076   5.07000017  57.61000061
C    20.82999992   4.90000010  57.28000259
C    16.72000122   4.38000011  56.39999771
C    16.01000023   4.63000011  57.60000229
C    14.61999989   4.69999981  57.70000076
C    24.60000038   5.38999987  57.02000046
H    25.11232948   4.74247313  57.73156738
H    20.15000153   5.27999973  59.29000092
H    18.89000130   3.93000007  54.61000061
H    21.28000069   4.21999979  53.93000031
H    23.62999916   4.42999983  54.61000061
H    22.39000130   5.35000038  58.63999939
H    14.13000011   4.86000013  58.64999771
H    25.20000076   5.40999985  56.10000229
H    24.47000122   6.43000031  57.34000397
S    13.50000000   3.74000025  53.97999573
C    10.78999996   3.68000007  54.66999817
C    12.10000038   3.84999990  55.06999969
C    12.46999931   4.23999977  56.39999771
C    11.46999931   4.44000006  57.32999802
C    10.10000038   4.35999966  56.97000122
C     8.98999977   4.46999979  57.84999847
C     7.69999981   4.23999977  57.42000198
C     7.40999985   3.91000009  56.06999969
C     8.46000004   3.61999989  55.22999573
C     9.77999973   3.97000027  55.61999893
C    13.90999985   4.34999990  56.53999710
C    14.60000038   4.00999975  55.34999847
C    15.98000050   4.00999975  55.27000046
C     5.98999977   3.53999996  55.70999908
H     5.51519775   4.10692787  54.90921402
H    10.52000046   3.51000023  53.62999725
H    11.72000027   4.67999983  58.36000061
H     9.11999989   4.67999983  58.89999771
H     6.89000034   4.32999992  58.15000153
H     8.38000011   3.03999996  54.31000137
H    16.54999924   3.58999991  54.45000076
H     5.31000042   3.65000010  56.56000137
H     5.93999958   2.48000002  55.45999908
S    13.50000000   1.89999998  51.11999893
C    10.80999947   1.38999999  51.75000000
C    12.13000107   1.36000013  52.11000061
C    12.60000038   0.75000000  53.31999969
C    11.69999981   0.20999999  54.22000122
C    10.31999969   0.41999999  53.95999908
C     9.35000038  -0.14000000  54.84000397
C     7.99000025  -0.09999999  54.62999725
C     7.55999994   0.37000000  53.36000061
C     8.45000076   0.94999999  52.49000168
C     9.85999966   0.96000004  52.70999908
C    14.04999924   0.76999998  53.46000290
C    14.65999985   1.44999993  52.38999939
C    16.02000046   1.75000000  52.29000092
C     6.10000038   0.13000000  53.04000092
H     5.87951231   0.25802508  51.98023987
H    10.47000027   1.74000001  50.77000046
H    12.02999973  -0.31000000  55.12000275
H     9.70000076  -0.76999998  55.65000153
H     7.40000010  -0.46999997  55.45999908
H     8.05999947   1.50000000  51.63999939
H    16.43000031   2.27999997  51.43000031
H     5.78000021  -0.83999997  53.41999817
H     5.53999996   0.86000001  53.63999939
S    17.42000008   0.13000000  55.61999893
C    20.05000114   0.44000000  54.86000061
C    18.73999977   0.79000002  54.64000320
C    18.27999878   1.43999994  53.44999695
C    19.22000122   1.89999998  52.54000092
C    20.59000015   1.66999996  52.80000305
C    21.61999893   2.11999989  51.93000031
C    22.95999908   1.90999997  52.16999817
C    23.40999985   1.21000004  53.31999969
C    22.42000198   0.73000002  54.15000153
C    21.02999878   0.99000001  53.97999573
C    16.82999992   1.35000002  53.34999847
C    16.21000099   0.68000007  54.43999863
C    14.88999939   0.24000001  54.45000076
C    24.89000130   1.02999997  53.56999969
H    25.30374146   1.45800853  54.48308563
H    20.46999931  -0.25999999  55.58000183
H    18.95000076   2.56000018  51.72000122
H    21.31000137   2.56999993  50.98999786
H    23.62999916   2.38000011  51.45999908
H    22.75000000   0.17999999  55.02999878
H    14.55000019  -0.39000002  55.26000214
H    25.50000000   1.42000008  52.75000000
H    25.13999939  -0.03000000  53.61000061
