96

S    17.51000023   5.07000017  58.93000031
C    20.17999840   5.17000008  58.09999847
C    18.88000107   4.82999992  57.81999969
C    18.48999977   4.32999992  56.53999710
C    19.43000031   4.18000031  55.52999878
C    20.76999855   4.53999996  55.79999924
C    21.77000046   4.44999981  54.79999924
C    23.08000183   4.74000025  55.13999939
C    23.45999908   5.14999962  56.44000244
C    22.50999832   5.36999989  57.41000366
C    21.15999985   5.07999992  57.08000183
C    17.05000114   4.19999981  56.42000198
C    16.40999985   4.67000008  57.60000229
C    15.03000069   4.75000000  57.71999741
C    24.89000130   5.60999966  56.63000107
H    25.33043289   4.85700512  57.28354645
H    20.55000114   5.50000000  59.06999969
H    19.29999924   3.76999998  54.52999878
H    21.38999939   4.23999977  53.80000305
H    23.84000015   4.75000000  54.36999893
H    22.72000122   5.82999992  58.37999725
H    14.52000046   5.26000023  58.54000092
H    25.39999962   5.51000023  55.66999817
H    24.89999962   6.65000010  56.98999786
S    13.85000038   3.52999973  54.03999710
C    11.21000099   3.65999985  54.73999786
C    12.50000000   3.88999987  55.13999939
C    12.84999943   4.42999983  56.42000198
C    11.82000065   4.65000010  57.31999969
C    10.47000027   4.39000034  56.95999908
C     9.38000011   4.65999985  57.83000183
C     8.07999992   4.30999994  57.54000092
C     7.79999971   3.65999985  56.31000137
C     8.80999947   3.52999973  55.37000275
C    10.14000034   3.96000004  55.61999893
C    14.28999996   4.32999992  56.60999680
C    14.91000080   3.81999993  55.44000244
C    16.28999901   3.72000003  55.34999847
C     6.44000006   3.01999998  56.11999893
H     5.83465195   3.66095710  55.47904205
H    11.10000038   3.12000012  53.80000305
H    11.98999977   4.94999981  58.34000015
H     9.61000061   5.03000021  58.81999969
H     7.37999964   4.34999990  58.36000061
H     8.56999969   3.05999994  54.41999817
H    16.73999977   3.51000023  54.38999939
H     5.93999958   2.73999977  57.05999756
H     6.67999983   2.09000015  55.59000015
S    14.15999985   1.51999998  50.91999817
C    11.43000031   1.25999999  51.59000015
C    12.75000000   0.97000003  51.84999847
C    13.21000004   0.34000003  53.04999924
C    12.23000050  -0.09999999  53.92000198
C    10.85000038   0.11000000  53.69999695
C     9.82999992  -0.50000000  54.47999954
C     8.48999977  -0.27000001  54.27000046
C     8.10999966   0.56000000  53.18000031
C     9.04999924   1.01999998  52.29000092
C    10.44000053   0.78000003  52.49000168
C    14.65000057   0.41000003  53.23999786
C    15.34000015   1.00999999  52.15000153
C    16.61999893   1.52999997  52.23999786
C     6.65999985   0.88000000  52.88000107
H     6.24644423   0.46644410  51.96019363
H    11.03999996   2.01999998  50.91999817
H    12.53999901  -0.57999998  54.85000229
H    10.05000019  -1.19000006  55.27999878
H     7.76000023  -0.90999997  54.77000427
H     8.80999947   1.59999990  51.40999603
H    17.13999939   2.01999998  51.42000198
H     6.14000034   0.50999999  53.76999664
H     6.61000013   1.97000003  53.02999878
S    17.95999908   0.03000000  55.65000153
C    20.65000153   0.48999998  54.89999771
C    19.29999924   0.56999999  54.62999725
C    18.85000038   1.28999996  53.47999954
C    19.77000046   1.76999998  52.55000305
C    21.15999985   1.65000010  52.77000046
C    22.13999939   2.10999990  51.84999847
C    23.47999954   1.92000008  52.09999847
C    23.88999939   1.35000002  53.33000183
C    22.98999977   0.75999999  54.19000244
C    21.60000038   0.93000001  53.94000244
C    17.42000008   1.12000000  53.31999969
C    16.77999878   0.45000002  54.38999939
C    15.42000008   0.14000000  54.36999893
C    25.31999969   1.61000001  53.75000000
H    25.69722748   0.96942502  54.54716110
H    21.02999878   0.00000000  55.79000092
H    19.31999969   2.20000005  51.65999985
H    21.81999969   2.59000015  50.93000031
H    24.20999908   2.47000003  51.51000214
H    23.26999855   0.39999998  55.18000031
H    15.06000042  -0.35999998  55.27000046
H    25.43000031   2.68000007  53.95000076
H    25.88000107   1.46000004  52.81999969
