96

S    17.22999954   4.86000013  58.90999603
C    19.96000099   5.19000006  58.26000214
C    18.71000099   4.69999981  57.94000244
C    18.43000031   3.95000005  56.76000214
C    19.52000046   3.82999992  55.91999817
C    20.79000092   4.42999983  56.11000061
C    21.91999817   4.30000019  55.26000214
C    23.19000053   4.63999987  55.65999985
C    23.45000076   5.23000002  56.91999817
C    22.36000061   5.50000000  57.71999741
C    21.07000160   4.98000002  57.41000366
C    17.01000023   3.70000005  56.55000305
C    16.21000099   4.23999977  57.58999634
C    14.86999989   4.61000013  57.52999878
C    24.79999924   5.51999998  57.52999878
H    25.28408432   4.82235146  58.21340942
H    20.05000114   5.66999960  59.23999786
H    19.40999985   3.12999988  55.08999634
H    21.64999962   3.84000015  54.31000137
H    23.98999977   4.32999992  54.99000168
H    22.36999893   5.93999958  58.70999908
H    14.28999996   5.05000019  58.33000183
H    25.48000145   5.69000006  56.68000031
H    24.61999893   6.44000006  58.09999847
S    13.86000061   3.05000019  54.08000183
C    11.09000015   3.23000002  54.59999847
C    12.38999939   3.51999998  54.95999908
C    12.77999973   4.15999985  56.17000198
C    11.78999996   4.42999983  57.09999847
C    10.47000027   3.98000002  56.86000061
C     9.44999981   4.09999990  57.83000183
C     8.11999989   3.91999984  57.51999664
C     7.73999977   3.45999980  56.24000168
C     8.73000050   3.08999991  55.35999680
C    10.10000038   3.38999987  55.59999847
C    14.22999954   4.25000000  56.33999634
C    14.96999931   3.51999998  55.38000107
C    16.35000038   3.30999994  55.38000107
C     6.32999992   2.94999981  56.00999832
H     5.78349924   3.48940325  55.23638153
H    10.75000000   2.73999977  53.68999863
H    12.10000038   4.76000023  58.09000015
H     9.85000038   4.63000011  58.69999695
H     7.32999992   4.15999985  58.22999954
H     8.56999969   2.63000011  54.38000107
H    16.88999939   3.00000000  54.48999786
H     5.66999960   3.00000000  56.88000107
H     6.38999987   1.95999992  55.54000092
S    17.71000099   5.05999994  53.00000000
C    20.38999939   5.26999998  52.18999863
C    19.06999969   5.03000021  51.86000061
C    18.68000031   4.63000011  50.54000092
C    19.63000107   4.44000006  49.54999924
C    20.96999931   4.71000004  49.88999939
C    22.04999924   4.67999983  48.95999908
C    23.38999939   4.79999971  49.27999878
C    23.78000069   5.00999975  50.63000107
C    22.77000046   5.29999971  51.52000046
C    21.38999939   5.13000011  51.19999695
C    17.23999977   4.48000002  50.43000031
C    16.59000015   4.75000000  51.65999985
C    15.21000004   4.76999998  51.81999969
C    25.23999977   5.23000002  50.93999863
H    25.56613350   4.77624702  51.87586594
H    20.69999886   5.73999977  53.11999893
H    19.19000053   4.19999981  48.59000397
H    21.70999908   4.44999981  47.95999908
H    24.13000107   4.77999973  48.48999786
H    23.02000046   5.68000031  52.50999832
H    14.77000046   4.90000010  52.81000137
H    25.73999786   4.79999971  50.06999969
H    25.38999939   6.32000017  50.91999817
S    14.01999950   4.02999973  48.02999878
C    11.38000011   3.77999997  48.75999832
C    12.64000034   4.17000008  49.13999939
C    12.97000027   4.55999994  50.47999954
C    11.95000076   4.55999994  51.42000198
C    10.59999943   4.42999983  51.00000000
C     9.51000023   4.56999969  51.90000153
C     8.21000004   4.23000002  51.65000153
C     7.88000011   3.91000009  50.31000137
C     8.90999985   3.86999989  49.38999939
C    10.29999924   4.01999998  49.65000153
C    14.40999985   4.56999969  50.68999863
C    15.03999901   4.23000002  49.47000122
C    16.42000008   4.18000031  49.33000183
C     6.48000002   3.58000016  49.85000229
H     6.00191355   4.19366264  49.08649063
H    11.23000050   3.26999998  47.81000137
H    12.13000107   4.48999977  52.48000336
H     9.75000000   4.88000011  52.91999817
H     7.42000008   4.28999996  52.39999771
H     8.73000050   3.60000014  48.34999847
H    16.84999847   4.13000011  48.33000183
H     5.84000015   3.56999993  50.75000000
H     6.52999973   2.54999995  49.48999786
