96

S    17.22999954   4.86000013  58.90999603
C    19.96000099   5.19000006  58.26000214
C    18.71000099   4.69999981  57.94000244
C    18.43000031   3.95000005  56.76000214
C    19.52000046   3.82999992  55.91999817
C    20.79000092   4.42999983  56.11000061
C    21.91999817   4.30000019  55.26000214
C    23.19000053   4.63999987  55.65999985
C    23.45000076   5.23000002  56.91999817
C    22.36000061   5.50000000  57.71999741
C    21.07000160   4.98000002  57.41000366
C    17.01000023   3.70000005  56.55000305
C    16.21000099   4.23999977  57.58999634
C    14.86999989   4.61000013  57.52999878
C    24.79999924   5.51999998  57.52999878
H    25.28408432   4.82235146  58.21340942
H    20.05000114   5.66999960  59.23999786
H    19.40999985   3.12999988  55.08999634
H    21.64999962   3.84000015  54.31000137
H    23.98999977   4.32999992  54.99000168
H    22.36999893   5.93999958  58.70999908
H    14.28999996   5.05000019  58.33000183
H    25.48000145   5.69000006  56.68000031
H    24.61999893   6.44000006  58.09999847
S    13.86000061   3.05000019  54.08000183
C    11.09000015   3.23000002  54.59999847
C    12.38999939   3.51999998  54.95999908
C    12.77999973   4.15999985  56.17000198
C    11.78999996   4.42999983  57.09999847
C    10.47000027   3.98000002  56.86000061
C     9.44999981   4.09999990  57.83000183
C     8.11999989   3.91999984  57.51999664
C     7.73999977   3.45999980  56.24000168
C     8.73000050   3.08999991  55.35999680
C    10.10000038   3.38999987  55.59999847
C    14.22999954   4.25000000  56.33999634
C    14.96999931   3.51999998  55.38000107
C    16.35000038   3.30999994  55.38000107
C     6.32999992   2.94999981  56.00999832
H     5.78349924   3.48940325  55.23638153
H    10.75000000   2.73999977  53.68999863
H    12.10000038   4.76000023  58.09000015
H     9.85000038   4.63000011  58.69999695
H     7.32999992   4.15999985  58.22999954
H     8.56999969   2.63000011  54.38000107
H    16.88999939   3.00000000  54.48999786
H     5.66999960   3.00000000  56.88000107
H     6.38999987   1.95999992  55.54000092
S    13.82999992   1.34000003  50.96000290
C    11.18999958   1.07000005  51.73999786
C    12.51000023   0.79999995  52.02999878
C    12.93000031   0.16000001  53.23999786
C    11.97999954  -0.28000000  54.13999939
C    10.60999966  -0.05000000  53.88000107
C     9.56999969  -0.41999999  54.79000092
C     8.26000023  -0.12000000  54.52999878
C     7.88000011   0.48000002  53.29999924
C     8.84000015   0.88000000  52.41000366
C    10.21999931   0.65999997  52.69000244
C    14.37999916   0.12000000  53.27999878
C    14.98999977   0.69000000  52.14000320
C    16.35000038   0.97000003  52.11000061
C     6.43000031   0.74000001  52.95000076
H     6.05339813   0.16443872  52.10442352
H    10.92000008   1.54999995  50.79999924
H    12.30000019  -0.57999998  55.13000107
H     9.96999931  -0.93000001  55.65999985
H     7.57999992  -0.51999998  55.28999710
H     8.60000038   1.47000003  51.52999878
H    16.67000008   1.56000006  51.25000000
H     5.79999971   0.50999999  53.81999969
H     6.21999979   1.75999999  52.62000275
S    17.59000015  -0.24000001  55.72000122
C    20.32999992   0.19999999  54.99000168
C    18.97999954   0.32000002  54.75999832
C    18.51000023   0.88999999  53.54000092
C    19.38999939   1.47000003  52.63999939
C    20.76999855   1.41000009  52.91999817
C    21.80000114   1.77999997  52.00000000
C    23.13999939   1.61000001  52.21000290
C    23.59000015   0.97000003  53.39000320
C    22.67000008   0.59000003  54.34000015
C    21.28000069   0.76999998  54.09999847
C    17.11000061   0.64999998  53.23999786
C    16.51000023  -0.04000000  54.33000183
C    15.14000034  -0.27000001  54.38999939
C    25.06000137   0.71999997  53.67000198
H    25.27953148   0.88287872  54.72517014
H    20.73999786  -0.28000000  55.86999893
H    19.09000015   1.69000006  51.60999680
H    21.44000053   2.25000000  51.07999802
H    23.85000038   2.11999989  51.56999969
H    22.93999863   0.23000000  55.33000183
H    14.68999958  -0.74000001  55.26000214
H    25.69000053   1.43999994  53.13999939
H    25.17000008  -0.28999999  53.26000214
