96

S    17.56000137   4.98000002  58.88000107
C    20.27000046   4.92000008  58.18000031
C    18.96999931   4.56999969  57.88000107
C    18.56999969   4.19000006  56.56000137
C    19.55000114   4.09999990  55.58000183
C    20.89999962   4.42999983  55.80999756
C    21.88999939   4.51000023  54.78000259
C    23.18000031   4.85000038  55.11000061
C    23.50000000   5.19999981  56.45000076
C    22.56999969   5.19999981  57.45999908
C    21.24000168   4.78999996  57.15999985
C    17.13000107   4.09000015  56.39999771
C    16.45000076   4.48999977  57.57999802
C    15.06999969   4.61000013  57.60000229
C    24.93999863   5.47999954  56.84000015
H    25.35302544   4.85333967  57.63044739
H    20.52000046   5.45000029  59.09000015
H    19.36000061   3.91999984  54.52000046
H    21.63000107   4.30999994  53.74000168
H    24.00000000   4.82999992  54.40999985
H    22.86000061   5.53999996  58.46000290
H    14.47000027   5.00000000  58.41999817
H    25.46999931   5.42000008  55.89000320
H    24.89000130   6.51999998  57.18000031
S    13.99000072   3.61999989  53.89999771
C    11.26000023   3.54999995  54.59999847
C    12.56999969   3.74000025  54.95999908
C    12.89000034   4.19999981  56.27999878
C    11.85999966   4.36999989  57.18000031
C    10.51000023   4.09000015  56.84000015
C     9.44000053   4.25000000  57.76000214
C     8.13000011   4.01999998  57.37999725
C     7.79999971   3.74000025  56.03000259
C     8.80999947   3.56999993  55.11000061
C    10.17000008   3.77999997  55.47999954
C    14.32999992   4.23000002  56.46999741
C    15.05000019   4.00000000  55.27000046
C    16.44000053   3.91000009  55.19000244
C     6.44999981   3.15000010  55.68999863
H     5.88950634   3.65373492  54.90247345
H    11.13999939   3.01999998  53.64999771
H    12.15000057   4.67999983  58.18999863
H     9.61000061   4.41000032  58.81999969
H     7.39000034   3.91999984  58.15999985
H     8.63000011   3.17000008  54.12000275
H    16.94000053   3.51000023  54.31999969
H     5.73999977   3.16000009  56.52999878
H     6.61999989   2.13000011  55.33000183
S    17.84000015   5.42000008  52.57999802
C    20.48999977   5.63000011  51.79999924
C    19.19000053   5.38000011  51.43000031
C    18.84000015   5.01999950  50.08999634
C    19.89999962   4.86000013  49.20999908
C    21.25999832   5.09999990  49.52999878
C    22.23999977   5.18000031  48.50000000
C    23.47999954   5.58000040  48.94000244
C    23.75000000   6.01999998  50.26000214
C    22.79000092   6.11999989  51.25000000
C    21.54999924   5.52999973  50.86999893
C    17.40999985   4.79999971  49.99000168
C    16.75000000   4.99000025  51.24000168
C    15.36999893   5.05999994  51.36000061
C    25.15999985   6.44999981  50.59000015
H    25.65129662   5.84478045  51.35186386
H    20.68000031   6.06999969  52.77000046
H    19.60000038   4.86000013  48.15999985
H    22.04000092   4.86999989  47.48000336
H    24.30999947   5.73999977  48.25000000
H    22.92000008   6.63000011  52.19999695
H    14.96000099   5.45000029  52.28000259
H    25.72000122   6.43000031  49.65000153
H    25.10999870   7.50000000  50.89000320
S    14.11000061   4.19000006  47.65999603
C    11.46000004   4.07999992  48.44999695
C    12.76999950   4.26999998  48.81999969
C    13.15999985   4.74000025  50.11000061
C    12.18000031   4.84000015  51.09000397
C    10.82999992   4.56999969  50.77000046
C     9.81999969   4.50000000  51.77000046
C     8.51000023   4.19999981  51.46999741
C     8.14000034   3.86000013  50.13999939
C     9.07999992   3.91000009  49.13999939
C    10.44000053   4.21000004  49.43000031
C    14.60999966   4.79999971  50.20999908
C    15.25000000   4.55000019  48.96999741
C    16.62999916   4.48999977  48.87000275
C     6.72999954   3.40000010  49.86000061
H     6.23823118   4.07707262  49.16154861
H    11.21000099   3.91000009  47.39999771
H    12.38999939   4.94000006  52.15000153
H    10.11000061   4.94999981  52.71999741
H     7.73000002   4.46000004  52.18000031
H     8.76000023   3.63999987  48.13000107
H    17.10000038   4.33999968  47.90000153
H     6.25000000   3.52999973  50.84000015
H     6.67999983   2.38000011  49.45999908
