96

S    17.27000046   4.90999985  58.90999603
C    19.95000076   4.88999987  58.13000107
C    18.64999962   4.50000000  57.88000107
C    18.30000114   4.01999998  56.58000183
C    19.27999878   3.91000009  55.61000061
C    20.63999939   4.18000031  55.90000153
C    21.73000145   3.93000007  55.01999664
C    23.00000000   4.44999981  55.20999908
C    23.29000092   5.01999950  56.46999741
C    22.32000160   5.13000011  57.44999695
C    20.96999931   4.81999969  57.14000320
C    16.84999847   4.07000017  56.47999573
C    16.11999893   4.55999994  57.58999634
C    14.75000000   4.77999973  57.63000107
C    24.70999908   5.46999979  56.72999954
H    25.13766098   4.89265776  57.54968262
H    20.20000076   5.28999996  59.09999847
H    19.01000023   3.52999973  54.61999893
H    21.48999977   3.58999991  54.02000046
H    23.69999886   4.50000000  54.38999939
H    22.50000000   5.51000023  58.44999695
H    14.35999966   5.09999990  58.59000397
H    25.32999992   5.32999992  55.84000015
H    24.70999908   6.51999998  57.06999969
S    13.60000038   3.48000002  54.08000183
C    10.90999985   3.31999993  54.75999832
C    12.18999958   3.65000010  55.13999939
C    12.53000069   4.25000000  56.39999771
C    11.56000042   4.32000017  57.37999725
C    10.24000072   3.94000006  57.06999969
C     9.21000004   3.98999977  58.06000137
C     7.92999983   3.56999993  57.78999710
C     7.59999990   3.14000010  56.47999573
C     8.57999992   3.03999996  55.52000046
C     9.89999962   3.50000000  55.73999786
C    13.97999954   4.40000010  56.52000046
C    14.68999958   3.91000009  55.40000153
C    16.06999969   3.68999982  55.38999939
C     6.15999985   2.82000017  56.12999725
H     5.88194895   3.40462041  55.25306702
H    10.72000027   2.93000007  53.75999832
H    11.87999916   4.61000013  58.37999725
H     9.48999977   4.38000011  59.03999710
H     7.14999962   3.77999997  58.50999832
H     8.30999947   2.63999987  54.54000092
H    16.51000023   3.26999998  54.48999786
H     5.42000008   2.94999981  56.93000031
H     6.26999950   1.77999997  55.79000092
S    14.18000031   1.50999999  51.14999771
C    11.51000023   0.99000001  51.70999908
C    12.82999992   0.81000000  52.05999756
C    13.27999973   0.22000000  53.27999878
C    12.30999947  -0.13000000  54.20999908
C    10.93999958   0.05000000  53.88999939
C     9.94000053  -0.48000002  54.75000000
C     8.61999989  -0.46999997  54.38000107
C     8.19999981   0.09000000  53.13999939
C     9.13000011   0.59999996  52.27000427
C    10.51000023   0.55000001  52.62000275
C    14.73000050   0.24000001  53.36000061
C    15.36999893   1.02999997  52.36999893
C    16.69999886   1.43000007  52.42000198
C     6.77999973  -0.19999999  52.70999908
H     6.35920477   0.32777697  51.85414505
H    11.28999901   1.30999994  50.70000076
H    12.69000053  -0.45000002  55.18000031
H    10.26999950  -0.94999999  55.68000031
H     7.86000013  -0.96000004  54.99000168
H     8.90999985   0.81000000  51.22000122
H    17.04000092   2.21000004  51.75000000
H     6.69000053  -1.28999996  52.56000137
H     6.17000008  -0.09000000  53.61000061
S    18.09000015  -0.39999998  55.66999817
C    20.76999855   0.41000003  55.08999634
C    19.42000008   0.39000002  54.80999756
C    18.89999962   0.93000001  53.60000229
C    19.80999947   1.46000004  52.70000076
C    21.21000099   1.33000004  52.80000305
C    22.18000031   1.82999992  51.88000107
C    23.50000000   1.79000008  52.23999786
C    23.95999908   1.31999993  53.50000000
C    23.03999901   0.94999999  54.45000076
C    21.65999985   0.90000004  54.09999847
C    17.45000076   0.83999997  53.44999695
C    16.84999847   0.09000000  54.48999786
C    15.50000000  -0.23000000  54.43000031
C    25.45999908   1.25999999  53.68999863
H    25.79551125   1.32424676  54.72508621
H    21.14999962   0.01000000  56.03000259
H    19.37000084   2.05999994  51.90999985
H    21.84999847   2.28999996  50.94999695
H    24.23999977   2.14000010  51.52999878
H    23.35000038   0.59000003  55.43000031
H    15.01000023  -0.69999999  55.27000046
H    25.86000061   2.15000010  53.18000031
H    25.90999985   0.35999998  53.25000000
