96

S    17.65999985   4.72000027  58.79000092
C    20.36000061   4.75000000  58.13000107
C    19.06999969   4.48999977  57.72999573
C    18.73999977   4.15000010  56.38000107
C    19.77000046   4.07999992  55.45000076
C    21.09000015   4.46000004  55.77000046
C    22.11999893   4.42999983  54.78000259
C    23.40999985   4.61000013  55.22999573
C    23.67000198   4.79999971  56.60999680
C    22.70999908   5.00999975  57.56999969
C    21.37000084   4.79999971  57.14000320
C    17.29999924   4.09999990  56.18999863
C    16.61000061   4.42999983  57.38999939
C    15.22999954   4.61000013  57.47000122
C    25.09000015   5.13999987  57.02000046
H    25.34671211   4.74780130  58.00406265
H    20.45000076   5.29999971  59.06999969
H    19.48999977   3.91000009  54.41999817
H    21.90000153   4.05999994  53.79000092
H    24.27000046   4.72000027  54.56999969
H    22.85000038   5.26999998  58.61999893
H    14.68999958   4.98000002  58.34000015
H    25.75000000   4.73000002  56.25000000
H    25.06000137   6.24000025  56.93999863
S    14.11000061   3.77999997  53.73000336
C    11.40999985   3.67000008  54.38999939
C    12.69999981   3.96000004  54.79000092
C    13.03999996   4.23999977  56.14999771
C    12.01000023   4.48000002  57.04000092
C    10.65000057   4.38000011  56.65999985
C     9.53999996   4.44999981  57.55000305
C     8.25000000   4.21999979  57.12999725
C     7.99000025   3.68000007  55.84999847
C     9.03999996   3.53999996  54.97000122
C    10.38000011   3.84999990  55.34000015
C    14.47999954   4.23999977  56.35000229
C    15.17000008   3.93000007  55.14999771
C    16.54999924   3.77999997  55.05000305
C     6.63999987   3.07000017  55.56000137
H     6.00084019   3.75177050  54.99896240
H    11.14999962   3.14000010  53.47999954
H    12.05000019   4.77999973  58.09000015
H     9.81999969   4.69999981  58.56999969
H     7.42999983   4.48000002  57.80000305
H     8.85000038   3.14000010  53.97999573
H    16.97000122   3.42999983  54.10999680
H     6.17000008   2.69000006  56.47999573
H     6.76999998   2.10999990  55.04000092
S    17.42000008   5.36999989  52.60000229
C    20.13000107   5.47999954  51.91999817
C    18.82999992   5.25000000  51.52999878
C    18.53000069   5.00999975  50.15999603
C    19.55999947   4.76999998  49.26000214
C    20.89999962   4.94999981  49.68000031
C    22.00000000   4.69999981  48.81000137
C    23.26999855   5.07999992  49.18000031
C    23.47999954   5.69000006  50.44000244
C    22.53000069   5.69999981  51.44000244
C    21.21000099   5.42000008  51.00000000
C    17.09000015   4.88000011  49.99000168
C    16.39999962   5.32000017  51.14999771
C    15.03000069   5.53999996  51.12999725
C    24.84999847   6.19000006  50.84999847
H    25.41568565   5.40511274  51.35204697
H    20.29999924   5.75999975  52.95999908
H    19.32999992   4.38000011  48.27000046
H    21.78999901   4.42000008  47.77999878
H    24.07999992   5.03000021  48.46000290
H    22.73999977   6.05999994  52.43999863
H    14.52000046   5.98000002  51.98999786
H    25.38000107   6.61999989  50.00000000
H    24.70000076   6.98000002  51.59000015
S    13.82999992   3.78999996  47.78999710
C    11.13999939   3.93000007  48.48999786
C    12.43999958   4.28000021  48.76999664
C    12.86000061   4.88000011  49.99000168
C    11.90999985   5.13999987  50.96000290
C    10.53999996   4.92999983  50.68000031
C     9.57999992   5.19000006  51.70999908
C     8.26000023   4.86000013  51.53999710
C     7.90000010   4.21999979  50.31999969
C     8.80999947   3.86000013  49.34999847
C    10.18000031   4.21000004  49.48999786
C    14.30999947   5.05000019  50.02999878
C    15.00000000   4.46000004  48.95000076
C    16.38000107   4.38000011  48.88000107
C     6.48999977   3.72000003  50.10000229
H     5.97215366   4.36553431  49.39062119
H    10.86999989   3.40000010  47.57999802
H    12.13000107   5.59000015  51.93000031
H     9.89000034   5.61999989  52.65999603
H     7.64999962   4.94000006  52.43000031
H     8.55000019   3.30000019  48.44999695
H    16.97999954   4.15999985  48.00000000
H     5.95000029   3.65000010  51.04999924
H     6.48000002   2.70000005  49.69999695
