96

S    17.45000076   4.78999996  58.94000244
C    20.13999939   5.00999975  58.20000076
C    18.84000015   4.71000004  57.84000015
C    18.53999901   4.15000010  56.56000137
C    19.52000046   3.98999977  55.59000015
C    20.82999992   4.33999968  55.97999954
C    21.90999985   4.25000000  55.05000305
C    23.19000053   4.65000010  55.35999680
C    23.52999878   5.10999966  56.65000153
C    22.55000114   5.10999966  57.62000275
C    21.19999886   4.81999969  57.28000259
C    17.10000038   3.98000002  56.43000031
C    16.38000107   4.32999992  57.60000229
C    15.00000000   4.39000034  57.71999741
C    24.94999886   5.55999994  56.95000076
H    25.31288338   5.09749985  57.86788177
H    20.38000107   5.47999954  59.15000153
H    19.40000153   3.75000000  54.54000092
H    21.83000183   3.73000002  54.09999847
H    23.92000008   4.55999994  54.55999756
H    22.75000000   5.47999954  58.61999893
H    14.55000019   4.55999994  58.68999863
H    25.62000084   5.23000002  56.13999939
H    24.77999878   6.63999987  56.97000122
S    13.83999920   3.44000006  54.02000046
C    11.13000011   3.25999999  54.71000290
C    12.42000008   3.58000016  55.06999969
C    12.79999924   4.00999975  56.38000107
C    11.77000046   4.19999981  57.28000259
C    10.40999985   3.91999984  56.98999786
C     9.30999947   4.02999973  57.88000107
C     8.02999973   3.70000005  57.50999832
C     7.75000000   3.10999990  56.25000000
C     8.78000069   3.05999994  55.33000183
C    10.11000061   3.40000010  55.68999863
C    14.22999954   4.21000004  56.56000137
C    14.92000008   3.88999987  55.35999680
C    16.29999924   3.71000004  55.31000137
C     6.35999966   2.61000013  55.91999817
H     5.91164494   3.26474023  55.17274094
H    10.77999973   2.79000020  53.79000092
H    11.97999954   4.55000019  58.29000092
H     9.46000004   4.25000000  58.94000244
H     7.26000023   3.94000006  58.25000000
H     8.46000004   2.76999998  54.33000183
H    16.72999954   3.19999981  54.45999908
H     5.84999990   2.66999984  56.88999939
H     6.48999977   1.56000006  55.63999939
S    14.22999954   1.38000000  50.97000122
C    11.52999973   0.85000002  51.56999969
C    12.84999943   0.82999998  51.93999863
C    13.38000107   0.28000000  53.15999985
C    12.46999931  -0.34000003  54.00000000
C    11.09000015  -0.32000002  53.69999695
C    10.08999920  -0.69000000  54.64000320
C     8.75000000  -0.62000000  54.34999847
C     8.31999969  -0.04000000  53.11999893
C     9.22000027   0.37000000  52.16999817
C    10.60999966   0.25999999  52.47000122
C    14.81999969   0.39000002  53.34000015
C    15.43000031   1.03999996  52.23999786
C    16.77000046   1.38999999  52.23999786
C     6.84000015   0.24000001  52.97999954
H     6.42036200  -0.17252535  52.06248856
H    11.18000031   1.28000009  50.63999939
H    12.84999943  -1.01999998  54.75999832
H    10.40999985  -1.08999991  55.59999847
H     8.02999973  -0.88000000  55.13000107
H     8.97000027   0.97000003  51.30000305
H    17.14999962   1.86000001  51.33999634
H     6.38000011  -0.25999999  53.82999802
H     6.65000010   1.31999993  52.98999786
S    18.04999924   0.17999999  55.79000092
C    20.72999954   0.69000000  55.20000076
C    19.43000031   0.65999997  54.77000427
C    19.00000000   1.13000000  53.48999786
C    20.00999832   1.49000001  52.62000275
C    21.38000107   1.48000002  52.98999786
C    22.36999893   2.01999998  52.11999893
C    23.71000099   1.99000001  52.43000031
C    24.10000038   1.46000004  53.68999863
C    23.15000153   1.08999991  54.61999893
C    21.76000214   1.14999998  54.33000183
C    17.56000137   1.00999999  53.34000015
C    16.94000053   0.32000002  54.40999985
C    15.62000084  -0.13000000  54.36000061
C    25.55999947   1.15999997  53.95000076
H    25.93125153   1.54553068  54.89954758
H    21.00000000   0.25000000  56.16000366
H    19.78000069   1.71000004  51.58000183
H    22.07999992   2.29999995  51.11000061
H    24.40000153   2.20000005  51.60999680
H    23.36000061   0.56000000  55.54999924
H    15.14999962  -0.75000000  55.11000061
H    26.25999832   1.46000004  53.15999985
H    25.69000053   0.07000000  54.01000214
