96

S    17.15999985   5.32999992  59.18000031
C    19.88999939   5.25000000  58.50000000
C    18.57999992   4.94999981  58.20000076
C    18.23999977   4.46000004  56.90000153
C    19.29000092   4.39000034  56.00000000
C    20.62999916   4.74000025  56.27999878
C    21.61999893   4.56999969  55.27000046
C    22.88999939   5.01999950  55.52000046
C    23.22000122   5.65000010  56.75000000
C    22.30999947   5.71000004  57.77000046
C    20.97999954   5.23000002  57.58999634
C    16.79999924   4.42999983  56.69000244
C    16.10000038   4.88999987  57.83000183
C    14.70999908   4.94999981  57.87000275
C    24.64999962   6.11000013  56.95999908
H    25.19015884   5.48455334  57.67073441
H    20.19000053   5.66999960  59.45999908
H    19.18000031   4.18000031  54.93999863
H    21.40999985   4.11000013  54.31000137
H    23.67000198   5.03000021  54.75000000
H    22.70999908   6.10000038  58.69999695
H    14.25000000   5.13999987  58.82999802
H    25.22000122   6.11999989  56.02000427
H    24.64999962   7.07000017  57.47000122
S    13.57999992   3.72000003  54.26000214
C    10.85999966   3.63999987  54.85000229
C    12.13999939   3.97000027  55.26000214
C    12.51999950   4.35999966  56.58000183
C    11.51000023   4.51999998  57.50999832
C    10.15999985   4.23999977  57.15999985
C     9.06000042   4.35999966  58.04999924
C     7.82000017   3.84000015  57.77000046
C     7.55999994   3.37000012  56.45000076
C     8.56000042   3.25999999  55.51000214
C     9.85999966   3.72000003  55.84999847
C    13.94999981   4.55999994  56.76000214
C    14.65999985   4.21999979  55.58000183
C    16.04999924   4.13999987  55.54000092
C     6.17999983   2.86000013  56.16000366
H     5.75509214   3.40529847  55.31726837
H    10.50000000   3.33999991  53.88000107
H    11.80999947   4.92000008  58.47000122
H     9.26999950   4.76999998  59.03999710
H     7.05999947   3.94000006  58.54000092
H     8.32999992   2.80999994  54.54000092
H    16.44000053   3.81000018  54.58000183
H     5.51999998   2.86999989  57.04000092
H     6.32999992   1.80999994  55.86000061
S    13.96999931   1.90999997  51.09000397
C    11.28999901   1.50999999  51.86000061
C    12.63000011   1.31999993  52.09999847
C    13.09999943   0.51999998  53.18999863
C    12.17000008  -0.11000000  54.00000000
C    10.80000019   0.11000000  53.75999832
C     9.78999996  -0.43000001  54.59999847
C     8.43999958  -0.25999999  54.41999817
C     7.95000029   0.39999998  53.26000214
C     8.89999962   0.88999999  52.38999939
C    10.29999924   0.88000000  52.64999771
C    14.52999973   0.73000002  53.36999893
C    15.15999985   1.43999994  52.31999969
C    16.50000000   1.80000007  52.25999832
C     6.48000002   0.50000000  52.94000244
H     6.23123217   0.09486398  51.95914459
H    10.90999985   2.13000011  51.04999924
H    12.31999969  -0.75000000  54.86999893
H    10.14000034  -1.21000004  55.27999878
H     7.71000004  -0.79999995  55.01999664
H     8.53999996   1.33000004  51.45999908
H    16.94000053   2.38999987  51.45999908
H     6.02999973  -0.03000000  53.77999878
H     6.21000004   1.56000006  53.04000092
S    17.71999931   0.19000000  55.70000076
C    20.38999939   0.79999995  55.08999634
C    19.05999947   0.88000000  54.75999832
C    18.68000031   1.50000000  53.52000427
C    19.61000061   2.05999994  52.67000198
C    20.98999977   2.04999995  53.02000046
C    22.01999855   2.52999997  52.15999985
C    23.34000015   2.25000000  52.39999771
C    23.69999886   1.54999995  53.59000397
C    22.72999954   1.08000004  54.43999863
C    21.35999870   1.38000000  54.22999954
C    17.23999977   1.35000002  53.34999847
C    16.61000061   0.59000003  54.36999893
C    15.27999973   0.19999999  54.43000031
C    25.15999985   1.15999997  53.70999908
H    25.49262619   1.25908029  54.74326706
H    20.81999969   0.32000002  55.97000122
H    19.36000061   2.50000000  51.70999908
H    21.77000046   2.89999986  51.17000198
H    24.04000092   2.39999986  51.59000015
H    22.92000008   0.34999999  55.21999741
H    14.88999939  -0.62000000  55.02999878
H    25.59999847   1.82999992  52.97000122
H    25.22999954   0.13000000  53.34999847
