96

S    16.72999954   4.92999983  58.83999634
C    19.48999977   4.84000015  58.22999954
C    18.18000031   4.61999989  57.87000275
C    17.89999962   4.09999990  56.56000137
C    18.93000031   3.88000011  55.65999985
C    20.28000069   4.18000031  55.97000122
C    21.37000084   4.07000017  55.06999969
C    22.67000008   4.38000011  55.40000153
C    22.93000031   4.92000008  56.69000244
C    21.90000153   5.00000000  57.58999634
C    20.55000114   4.65999985  57.29999924
C    16.46000099   4.05999994  56.38999939
C    15.67999935   4.57999992  57.44999695
C    14.29999924   4.76999998  57.44999695
C    24.31999969   5.36000013  57.09999847
H    24.82663918   4.60360909  57.69940567
H    19.57999992   5.32999992  59.19000244
H    18.77000046   3.67000008  54.59999847
H    21.18999863   3.70000005  54.06999969
H    23.52000046   4.18000031  54.73999786
H    22.06999969   5.23000002  58.63999939
H    13.78000069   5.26999998  58.26000214
H    24.89000130   5.69999981  56.23000336
H    24.21999931   6.30000019  57.67000198
S    13.21000004   3.22000003  54.06000137
C    10.48999977   3.23000002  54.73999786
C    11.77999973   3.61999989  55.02999878
C    12.10000038   4.30999994  56.24000168
C    11.09000015   4.59000015  57.14000320
C     9.75000000   4.28999996  56.81000137
C     8.69999981   4.59999990  57.72999573
C     7.40000010   4.26999998  57.43000031
C     7.05999947   3.61999989  56.20999908
C     8.05000019   3.30000019  55.31999969
C     9.42000008   3.58999991  55.59999847
C    13.55000019   4.34999990  56.35000229
C    14.32999992   3.84999990  55.27999878
C    15.71000004   3.70000005  55.27000046
C     5.64000034   3.15000010  55.98999786
H     5.27169991   3.74494696  55.15423965
H    10.36000061   2.53999996  53.89999771
H    11.26999950   4.86999989  58.16999817
H     8.98999977   5.03000021  58.68000031
H     6.65999985   4.36999989  58.22000122
H     7.81000042   2.93000007  54.33000183
H    16.21999931   3.31999993  54.38000107
H     5.07999992   3.33999991  56.90999985
H     5.58000040   2.09999990  55.68000031
S    14.19000053   1.35000002  50.98999786
C    11.52999973   0.74000001  51.47999573
C    12.84999943   0.59999996  51.86999893
C    13.25000000   0.16000001  53.16999817
C    12.28999996  -0.28000000  54.06000137
C    10.93000031  -0.08000001  53.70999908
C     9.92000008  -0.44000000  54.64000320
C     8.57999992  -0.22000000  54.43000031
C     8.18000031   0.29999998  53.16999817
C     9.13000011   0.69999999  52.27000427
C    10.52999973   0.52999997  52.47000122
C    14.65000057   0.44000000  53.43000031
C    15.31999969   1.00999999  52.31999969
C    16.64999962   1.39999998  52.31999969
C     6.70000029   0.54000002  52.94000244
H     6.28840351   0.10001776  52.03165054
H    11.30000019   1.01999998  50.45999908
H    12.53000069  -0.69999999  55.04000092
H    10.26999950  -0.78000003  55.61000061
H     7.92000008  -0.19999999  55.30000305
H     8.76000023   1.07000005  51.31999969
H    17.19000053   1.76999998  51.45000076
H     6.17000008   0.12000000  53.80000305
H     6.53999996   1.62000000  52.97999954
S    17.92000008  -0.25999999  55.72000122
C    20.61000061   0.32999998  55.07999802
C    19.27999878   0.29999998  54.72999954
C    18.82999992   0.93000001  53.52000427
C    19.79999924   1.38999999  52.63999939
C    21.18000031   1.44999993  52.95000076
C    22.18000031   1.94999993  52.08000183
C    23.48999977   1.66999996  52.38999939
C    23.88999939   1.19999993  53.68000031
C    22.93999863   0.93999994  54.64000320
C    21.57999992   0.88999999  54.20999908
C    17.38000107   1.02999997  53.46000290
C    16.75000000   0.34999999  54.52999878
C    15.38000011   0.14999999  54.59000015
C    25.31999969   0.82000005  53.94000244
H    25.71703529   1.24539351  54.86168671
H    20.82999992   0.11000000  56.11999893
H    19.36000061   1.85000002  51.76000214
H    21.86000061   2.33999991  51.11999893
H    24.25000000   1.81999993  51.63999939
H    23.19000053   0.50000000  55.59999847
H    14.91000080  -0.25999999  55.47999954
H    25.92000008   1.22000003  53.11000061
H    25.39999962  -0.27000001  53.94000244
