96

S    17.12000084   4.92000008  58.95000076
C    19.82999992   5.09000015  58.27000046
C    18.53999901   4.78999996  57.88999939
C    18.17000008   4.41000032  56.56000137
C    19.14999962   4.33999968  55.59000015
C    20.51000214   4.53999996  55.91999817
C    21.55999947   4.38000011  54.97000122
C    22.86999893   4.48000002  55.38000107
C    23.19999886   4.90999985  56.69000244
C    22.20000076   5.07000017  57.61000061
C    20.82999992   4.90000010  57.28000259
C    16.72000122   4.38000011  56.39999771
C    16.01000023   4.63000011  57.60000229
C    14.61999989   4.69999981  57.70000076
C    24.60000038   5.38999987  57.02000046
H    25.11232948   4.74247313  57.73156738
H    20.15000153   5.27999973  59.29000092
H    18.89000130   3.93000007  54.61000061
H    21.28000069   4.21999979  53.93000031
H    23.62999916   4.42999983  54.61000061
H    22.39000130   5.35000038  58.63999939
H    14.13000011   4.86000013  58.64999771
H    25.20000076   5.40999985  56.10000229
H    24.47000122   6.43000031  57.34000397
S    13.50000000   3.74000025  53.97999573
C    10.78999996   3.68000007  54.66999817
C    12.10000038   3.84999990  55.06999969
C    12.46999931   4.23999977  56.39999771
C    11.46999931   4.44000006  57.32999802
C    10.10000038   4.35999966  56.97000122
C     8.98999977   4.46999979  57.84999847
C     7.69999981   4.23999977  57.42000198
C     7.40999985   3.91000009  56.06999969
C     8.46000004   3.61999989  55.22999573
C     9.77999973   3.97000027  55.61999893
C    13.90999985   4.34999990  56.53999710
C    14.60000038   4.00999975  55.34999847
C    15.98000050   4.00999975  55.27000046
C     5.98999977   3.53999996  55.70999908
H     5.51519775   4.10692787  54.90921402
H    10.52000046   3.51000023  53.62999725
H    11.72000027   4.67999983  58.36000061
H     9.11999989   4.67999983  58.89999771
H     6.89000034   4.32999992  58.15000153
H     8.38000011   3.03999996  54.31000137
H    16.54999924   3.58999991  54.45000076
H     5.31000042   3.65000010  56.56000137
H     5.93999958   2.48000002  55.45999908
S    17.52000046   5.51000023  52.81000137
C    20.22999954   5.69999981  52.16999817
C    18.96000099   5.32000017  51.79000092
C    18.67000008   4.84000015  50.47000122
C    19.71999931   4.61999989  49.59999847
C    21.05999947   4.90000010  49.95999908
C    22.15999985   4.81999969  49.06999969
C    23.40999985   5.26999998  49.45999908
C    23.61999893   5.59000015  50.81999969
C    22.62000084   5.65000010  51.77000046
C    21.30000114   5.40000010  51.29000092
C    17.22999954   4.86000013  50.24000168
C    16.50000000   5.32999992  51.36000061
C    15.11999989   5.49000025  51.39999771
C    24.96999931   6.14000034  51.23000336
H    25.51015854   5.42926407  51.85544968
H    20.38000107   6.23000050  53.09999847
H    19.55000114   4.26999998  48.57999802
H    21.90999985   4.69000006  48.02000046
H    24.23999977   5.46000004  48.79000092
H    22.76000023   6.01000023  52.77999878
H    14.68000031   5.79999971  52.34000397
H    25.53999901   6.37000036  50.31999969
H    24.89000130   7.00999975  51.88999939
S    14.01000023   4.28999996  47.77999878
C    11.31000042   4.25000000  48.48999786
C    12.61000061   4.53999996  48.83999634
C    12.89000034   5.07999992  50.13000107
C    11.89000034   5.23000002  51.06999969
C    10.53999996   4.88999987  50.77999878
C     9.48000050   4.92999983  51.72999954
C     8.21000004   4.61000013  51.31000137
C     7.96000004   3.93000007  50.08999634
C     9.02000046   3.74000025  49.23999786
C    10.31000042   4.30000019  49.48999786
C    14.34000015   5.14999962  50.28999710
C    15.06000042   4.69000006  49.15999985
C    16.44000053   4.48000002  49.15999985
C     6.57999992   3.45999980  49.66999817
H     6.11718512   4.05097866  48.87965393
H    11.09000015   3.81000018  47.51999664
H    12.02999973   5.58000040  52.08000183
H     9.63000011   5.25000000  52.76000214
H     7.39000034   4.77999973  52.00000000
H     8.80000019   2.99000001  48.47999954
H    16.84999847   3.95000005  48.30999756
H     5.86000013   3.49000001  50.50000000
H     6.71999979   2.38999987  49.48999786
