96

S    16.97999954   4.94000006  58.80000305
C    19.62000084   4.96000004  58.15000153
C    18.37000084   4.50000000  57.78999710
C    18.04999924   4.00999975  56.47999573
C    19.10000038   3.95000005  55.59000015
C    20.43000031   4.30999994  55.93000031
C    21.51000023   4.09000015  55.02999878
C    22.79999924   4.39000034  55.38999939
C    23.06999969   5.05999994  56.60999680
C    22.04000092   5.23000002  57.50000000
C    20.69999886   4.81999969  57.23999786
C    16.60000038   4.07999992  56.31999969
C    15.88999939   4.53999996  57.45999908
C    14.52000046   4.78999996  57.50000000
C    24.48999786   5.42000008  57.00000000
H    25.02298355   4.78041983  57.70353699
H    19.75000000   5.51000023  59.06999969
H    18.93000031   3.58999991  54.58000183
H    21.32999802   3.65000010  54.05000305
H    23.59999847   4.17000008  54.68999863
H    22.34999847   5.71000004  58.43000031
H    13.94999981   5.18000031  58.33000183
H    25.10999870   5.52999973  56.11000061
H    24.27999878   6.40999985  57.43999863
S    13.36999989   3.55999994  53.93000031
C    10.75000000   3.35999990  54.61999893
C    11.97000027   3.88999987  54.97000122
C    12.32999992   4.28000021  56.30000305
C    11.28999901   4.48000002  57.18999863
C     9.96999931   4.13999987  56.81999969
C     8.90999985   4.36999989  57.74000168
C     7.63999987   3.91999984  57.43999863
C     7.32999992   3.35000014  56.18000031
C     8.30999947   3.31999993  55.21999741
C     9.68000031   3.58999991  55.52999878
C    13.78000069   4.35999966  56.38999939
C    14.48999977   3.89999986  55.26000214
C    15.88000107   3.84999990  55.14999771
C     5.88999987   3.07000017  55.83000183
H     5.57158136   3.76344585  55.05164337
H    10.50000000   3.07000017  53.60000229
H    11.46000004   4.76999998  58.22999954
H     9.21000004   4.92999983  58.61999893
H     6.90000010   4.00999975  58.22000122
H     8.07999992   2.96000004  54.22000122
H    16.44000053   3.63999987  54.23999786
H     5.36999989   3.08999991  56.79999924
H     5.91000032   2.04999995  55.45000076
S    14.28999996   1.75999999  51.00000000
C    11.59999943   1.08999991  51.43000031
C    12.90999985   1.05999994  51.86000061
C    13.31999969   0.44000000  53.09000015
C    12.30999947  -0.08000001  53.88999939
C    10.93999958   0.02000000  53.54000092
C     9.89999962  -0.61000001  54.27999878
C     8.60000038  -0.39999998  53.89999771
C     8.21000004   0.45000002  52.83000183
C     9.21000004   0.88999999  51.97999954
C    10.57000065   0.64999998  52.30999756
C    14.73000050   0.61000001  53.39000320
C    15.38000011   1.21000004  52.28000259
C    16.69999886   1.65999997  52.32999802
C     6.77999973   0.93000001  52.70999908
H     6.23219728   0.30393976  52.00568390
H    11.25000000   1.51999998  50.48999786
H    12.64000034  -0.48000002  54.84000397
H    10.18000031  -1.13000000  55.19000244
H     7.86000013  -0.79000002  54.59000015
H     8.86999989   1.39999998  51.07999802
H    17.06999969   2.11999989  51.42000198
H     6.28999996   0.93999994  53.68999863
H     6.90000010   1.87999988  52.18000031
S    18.04000092  -0.04000000  55.61000061
C    20.75000000   0.28999999  54.86000061
C    19.40999985   0.48000002  54.61999893
C    18.96000099   1.22000003  53.47999954
C    19.85999870   1.76999998  52.57999802
C    21.24000168   1.58999991  52.81999969
C    22.20000076   2.09999990  51.88999939
C    23.54000092   2.05999994  52.18000031
C    24.00000000   1.43999994  53.36999893
C    23.09999847   0.83999997  54.22000122
C    21.70000076   0.87000000  53.96999741
C    17.51000023   1.29999995  53.40999985
C    16.86000061   0.55000001  54.43000031
C    15.51000023   0.24000001  54.48999786
C    25.46999931   1.22000003  53.66000366
H    25.84591484   1.51789570  54.63880157
H    20.98999977  -0.28000000  55.75000000
H    19.56999969   2.29999995  51.66999817
H    21.68999863   2.59000015  51.05999756
H    24.20000076   2.52999997  51.45000076
H    23.42000008   0.19000000  55.02999878
H    15.05000019  -0.32000002  55.30000305
H    26.14999962   1.72999990  52.97999954
H    25.62999916   0.14000000  53.53000259
