96

S    16.84999847   4.86000013  59.02000046
C    19.56999969   5.00000000  58.40999985
C    18.30999947   4.61000013  58.04000092
C    17.94000053   4.17000008  56.72999954
C    18.97999954   4.00999975  55.83000183
C    20.30999947   4.36999989  56.16000366
C    21.35000038   4.42000008  55.19000244
C    22.63000107   4.80999994  55.50000000
C    22.95000076   5.17000008  56.84000015
C    21.96000099   5.25000000  57.78999710
C    20.62999916   4.86999989  57.47000122
C    16.50000000   4.09999990  56.52000046
C    15.76000023   4.53000021  57.65999603
C    14.37000084   4.50000000  57.65999603
C    24.37999916   5.51000023  57.21000290
H    24.80092812   4.83936596  57.95911407
H    19.85000038   5.40000010  59.38999939
H    18.81999969   3.81000018  54.78000259
H    21.09999847   4.00999975  54.20999908
H    23.44000053   4.74000025  54.78000259
H    22.21999931   5.61999989  58.77999878
H    13.76999950   4.63000011  58.55999756
H    25.00000000   5.38999987  56.31000137
H    24.47000122   6.54999971  57.54000092
S    13.32999992   3.58000016  53.99000168
C    10.60999966   3.38000011  54.61000061
C    11.87999916   3.74000025  55.00000000
C    12.18000031   4.02999973  56.37000275
C    11.14999962   4.01999998  57.28000259
C     9.81999969   3.70000005  56.88999939
C     8.76000023   3.84999990  57.83000183
C     7.46000004   3.65999985  57.43000031
C     7.16000032   3.31999993  56.07999802
C     8.15999985   3.24000001  55.13999939
C     9.52999973   3.38000011  55.52000046
C    13.61999989   4.19999981  56.52000046
C    14.39000034   3.95000005  55.35999680
C    15.77999973   3.84000015  55.34999847
C     5.69999981   3.16000009  55.72999954
H     5.34385157   3.79394436  54.91798019
H    10.47000027   3.08999991  53.56999969
H    11.39000034   4.15999985  58.33000183
H     8.90999985   4.15999985  58.87000275
H     6.60000038   3.75999975  58.06999969
H     7.86999989   3.07999992  54.10999680
H    16.21999931   3.50000000  54.40999985
H     5.05999994   3.30000019  56.60999680
H     5.51000023   2.11999989  55.41999817
S    13.53000069   1.36999989  50.77999878
C    10.92000008   1.10000002  51.53999710
C    12.23000050   0.73000002  51.79999924
C    12.67000008   0.20999999  53.06000137
C    11.72999954  -0.00000000  54.05000305
C    10.36999893   0.25000000  53.77999878
C     9.31999969  -0.23000000  54.61000061
C     8.01000023  -0.27000001  54.19000244
C     7.59999990   0.32999998  52.97000122
C     8.56999969   0.82999998  52.12999725
C     9.94000053   0.75999999  52.50000000
C    14.11999893   0.38000000  53.13000107
C    14.72000027   1.12000000  52.08000183
C    16.03000069   1.57000005  52.02000046
C     6.11999989   0.50000000  52.75000000
H     5.84310722   0.21600765  51.73472595
H    10.65999985   1.59999990  50.61999893
H    12.05000019  -0.59999996  54.89999771
H     9.64999962  -0.69999999  55.52999878
H     7.20000029  -0.59000003  54.84000397
H     8.27000046   1.28999996  51.18999863
H    16.32999992   2.14000010  51.13999939
H     5.55999994  -0.05000000  53.52000427
H     5.89999962   1.57000005  52.84999847
S    17.35000038   0.12000000  55.50000000
C    20.03999901   0.57999998  54.84000397
C    18.70000076   0.73000002  54.52999878
C    18.26000023   1.33000004  53.30999756
C    19.25000000   1.86000001  52.49000168
C    20.62999916   1.84000003  52.81000137
C    21.61000061   2.27999997  51.88000107
C    22.93999863   2.13000011  52.18999863
C    23.36000061   1.36999989  53.31999969
C    22.42000198   0.88000000  54.20000076
C    21.02999878   1.07000005  53.95999908
C    16.81999969   1.23000002  53.11999893
C    16.21000099   0.57999998  54.22000122
C    14.91000080   0.09000000  54.25000000
C    24.80999947   0.97999996  53.50000000
H    25.28638649   1.37817264  54.39588928
H    20.36999893  -0.14999999  55.58000183
H    18.89999962   2.09000015  51.49000168
H    21.30000114   2.70000005  50.91999817
H    23.71999931   2.36000013  51.47999573
H    22.67999840   0.25999999  55.05000305
H    14.53999996  -0.50000000  55.07999802
H    25.36000061   1.46000004  52.69000244
H    24.82999992  -0.12000000  53.52000427
