96

S    16.69999886   5.25000000  58.72000122
C    19.38999939   5.45000029  58.00000000
C    18.13999939   4.94999981  57.71999741
C    17.84000015   4.36999989  56.44000244
C    18.88000107   4.23000002  55.54000092
C    20.20000076   4.69999981  55.79000092
C    21.30000114   4.36999989  54.93999863
C    22.57999802   4.67000008  55.33000183
C    22.86000061   5.19000006  56.62000275
C    21.80000114   5.46999979  57.45999908
C    20.43999863   5.32000017  57.05999756
C    16.39999962   4.28000021  56.25999832
C    15.65999985   4.75000000  57.36999893
C    14.28999996   4.96000004  57.32999802
C    24.27000046   5.61999989  56.95000076
H    24.74661827   5.02956152  57.73250961
H    19.63999939   5.73999977  59.02000046
H    18.78000069   3.56999993  54.68999863
H    21.12999916   3.84000015  54.01000214
H    23.35000038   4.46000004  54.59000015
H    21.87999916   5.82999992  58.47999954
H    13.76000023   5.31000042  58.22000122
H    24.92000198   5.72000027  56.07999802
H    24.21999931   6.65000010  57.31999969
S    13.21000004   3.58000016  53.79000092
C    10.47000027   3.53999996  54.38000107
C    11.75000000   3.84000015  54.77000427
C    12.10999966   4.26999998  56.09000397
C    11.06999969   4.42000008  56.97999954
C     9.73999977   4.05000019  56.65999985
C     8.73000050   4.01999998  57.67000198
C     7.44999981   3.65999985  57.35000229
C     7.13999987   3.28000021  56.02000427
C     8.06999969   3.28000021  55.00999832
C     9.42000008   3.58999991  55.34000015
C    13.53999996   4.51000023  56.23000336
C    14.28999996   4.11000013  55.08999634
C    15.67000008   3.98000002  55.10000229
C     5.71000004   2.96000004  55.63000107
H     5.39672375   3.49399376  54.73289108
H    10.26999950   3.28000021  53.34000015
H    11.31000042   4.67999983  58.01000214
H     9.06999969   4.48000002  58.60000229
H     6.63999987   3.76999998  58.06999969
H     7.67000008   3.14000010  54.01000214
H    16.14999962   3.58000016  54.20999908
H     4.97000027   3.38999987  56.31999969
H     5.61999989   1.87999988  55.51000214
S    17.59000015   5.36999989  52.78999710
C    20.31999969   5.77000046  52.09000015
C    19.04999924   5.33999968  51.77999878
C    18.71000099   4.92000008  50.45999908
C    19.67000008   4.80999994  49.47999954
C    20.97999954   5.25000000  49.79000092
C    22.07999992   5.19999981  48.88999939
C    23.36999893   5.51000023  49.23999786
C    23.68999863   5.96000004  50.54999924
C    22.67000008   6.09000015  51.45999908
C    21.34000015   5.71000004  51.11000061
C    17.28999901   4.67999983  50.20999908
C    16.56999969   4.99000025  51.38999939
C    15.18000031   5.00999975  51.37000275
C    25.07999802   6.24000025  51.06999969
H    25.35132599   5.71162510  51.98394775
H    20.55000114   6.11999989  53.09999847
H    19.37999916   4.48000002  48.47999954
H    22.00000000   4.75000000  47.90000153
H    24.11999893   5.21000004  48.52000427
H    22.79000092   6.42000008  52.49000168
H    14.57999992   5.03999996  52.28000259
H    25.86999893   6.28999996  50.30000305
H    24.99000168   7.27999973  51.38999939
S    14.19000053   4.07000017  47.63000107
C    11.50000000   3.96000004  48.20000076
C    12.75000000   4.30999994  48.63999939
C    13.03999996   4.74000025  49.98000336
C    11.98999977   4.96000004  50.84000015
C    10.67999935   4.63000011  50.41999817
C     9.59000015   4.69000006  51.33999634
C     8.30999947   4.41000032  50.91999817
C     8.03999996   3.95000005  49.61000061
C     9.07999992   3.78999996  48.73000336
C    10.42000008   4.11999989  49.09999847
C    14.47999954   4.82999992  50.17000198
C    15.21999931   4.39000034  49.03999710
C    16.61000061   4.32000017  49.03999710
C     6.65000010   3.68000007  49.08000183
H     6.28765678   4.34784889  48.29847336
H    11.25000000   3.53999996  47.22999954
H    12.13000107   5.19999981  51.88999939
H     9.85000038   5.12000036  52.29999924
H     7.40999985   4.55999994  51.51000214
H     8.85999966   3.45000005  47.71999741
H    17.11000061   4.17000008  48.09000015
H     6.02999973   3.81999993  49.98000336
H     6.44999981   2.68000007  48.67000198
