96

S    17.09000015   4.79999971  58.95999908
C    19.80999947   4.79999971  58.23999786
C    18.50000000   4.46999979  57.94000244
C    18.19000053   4.07000017  56.59999847
C    19.17000008   3.82999992  55.65999985
C    20.51000214   4.09000015  56.00999832
C    21.60000038   3.91999984  55.11000061
C    22.86999893   4.19999981  55.54999924
C    23.19999886   4.73000002  56.81999969
C    22.20000076   4.82999992  57.75000000
C    20.86000061   4.59999990  57.30999756
C    16.73999977   4.13999987  56.46999741
C    15.98999977   4.53999996  57.60000229
C    14.60000038   4.55999994  57.68000031
C    24.63999939   5.03000021  57.19999695
H    25.06577110   4.42682505  58.00186920
H    20.03000069   5.27999973  59.19000244
H    19.01000023   3.31999993  54.71000290
H    21.54000092   3.42999983  54.13999939
H    23.77000046   4.02999973  54.95999908
H    22.30999947   5.19000006  58.76999664
H    14.01999950   4.72000027  58.59000397
H    25.22999954   4.88999987  56.29000092
H    24.86999893   6.05999994  57.48000336
S    13.50000000   3.24000001  54.09999847
C    10.80000019   3.30999994  54.79999924
C    12.10000038   3.61000013  55.13000107
C    12.50000000   4.21999979  56.36000061
C    11.50000000   4.44000006  57.29000092
C    10.17000008   4.05000019  57.04000092
C     9.19999981   3.98000002  58.08000183
C     7.95000029   3.42000008  57.90999985
C     7.53000021   3.02999997  56.60999680
C     8.43000031   3.12999988  55.58000183
C     9.77000046   3.55999994  55.73999786
C    13.94999981   4.32000017  56.46999741
C    14.63000107   3.70000005  55.38999939
C    16.01000023   3.58999991  55.40999985
C     6.14000034   2.56000018  56.23000336
H     5.74226904   3.09977841  55.37061310
H    10.57999992   2.75000000  53.88999939
H    11.87999916   4.69999981  58.27999878
H     9.61000061   4.32000017  59.02000046
H     7.28999996   3.47000003  58.76999664
H     8.17000008   2.79000020  54.58000183
H    16.53000069   3.03999996  54.62999725
H     5.49000025   2.92000008  57.04000092
H     6.11000013   1.50000000  55.97000122
S    17.36999893   5.13000011  52.88000107
C    20.10000038   5.05000019  52.42000198
C    18.84000015   4.81999969  51.93999863
C    18.53000069   4.59999990  50.54999924
C    19.59000015   4.53000021  49.66999817
C    20.92000008   4.53999996  50.14999771
C    22.03000069   4.69000006  49.27000046
C    23.28000069   5.05999994  49.72000122
C    23.54000092   5.35000038  51.07999802
C    22.49000168   5.22000027  51.95999908
C    21.18999863   4.82999992  51.52999878
C    17.11000061   4.71000004  50.26000214
C    16.36999893   5.09000015  51.40999603
C    14.98000050   5.03000021  51.49000168
C    24.97999954   5.60999966  51.49000168
H    25.40133667   4.68163157  51.87562943
H    20.17999840   5.69000006  53.29999924
H    19.38999939   4.53000021  48.60000229
H    21.87999916   4.61000013  48.20000076
H    24.11000061   5.10999966  49.02000046
H    22.60999870   5.65999985  52.95000076
H    14.40999985   5.09000015  52.41000366
H    25.55999947   5.88999987  50.59999847
H    25.13999939   6.42000008  52.22000122
S    13.89999962   3.65999985  47.88999939
C    11.19999981   3.71000004  48.52000427
C    12.48999977   3.98999977  48.90999603
C    12.86000061   4.44000006  50.21999741
C    11.82000065   4.59000015  51.11999893
C    10.47999954   4.38000011  50.72000122
C     9.43000031   4.55000019  51.68000031
C     8.13000011   4.23999977  51.38999939
C     7.77999973   3.75000000  50.10000229
C     8.75000000   3.63000011  49.13000107
C    10.11999989   3.88000011  49.41999817
C    14.30999947   4.59999990  50.34000015
C    15.00000000   4.19999981  49.16999817
C    16.39000130   4.30999994  49.13000107
C     6.32999992   3.40000010  49.87999725
H     5.82489395   4.09007454  49.20415497
H    11.05999947   3.23000002  47.55000305
H    12.02999973   4.88000011  52.14000320
H     9.68000031   4.86000013  52.69000244
H     7.26999998   4.32000017  52.04999924
H     8.52999973   3.28999996  48.11999893
H    16.90999985   4.05999994  48.20999908
H     5.75999975   3.48000002  50.81999969
H     6.30999994   2.36000013  49.52999878
