96

S    17.70000076   5.46000004  58.90999603
C    20.40999985   5.44000053  58.15000153
C    19.11000061   5.09000015  57.90000153
C    18.73999977   4.36999989  56.72000122
C    19.67000008   4.28000021  55.70000076
C    21.02999878   4.55999994  55.97000122
C    22.01999855   4.46000004  54.94999695
C    23.34000015   4.77999973  55.20000076
C    23.74000168   5.15999985  56.50000000
C    22.81999969   5.31000042  57.51999664
C    21.44000053   5.03000021  57.25999832
C    17.30999947   4.07999992  56.68000031
C    16.60000038   4.69999981  57.74000168
C    15.21999931   4.88999987  57.70000076
C    25.15999985   5.59000015  56.79000092
H    25.61601639   4.94160223  57.53815079
H    20.66999817   6.15000010  58.93000031
H    19.44000053   3.95000005  54.68999863
H    21.73999977   4.25000000  53.92000198
H    24.06999969   4.79999971  54.40000153
H    23.12999916   5.88999987  58.37999725
H    14.72000027   5.53999996  58.40999985
H    25.73999786   5.69000006  55.86000061
H    25.17999840   6.53999996  57.32999802
S    14.11999893   3.45000005  54.25000000
C    11.36000061   3.65000010  54.72000122
C    12.64999962   3.86000013  55.14999771
C    13.00000000   4.32000017  56.45999908
C    11.92000008   4.69999981  57.22999954
C    10.57999992   4.40000010  56.88999939
C     9.52000046   4.53999996  57.84000015
C     8.27999973   4.01999998  57.56999969
C     8.05000019   3.30999994  56.36000061
C     8.93000031   3.44000006  55.31999969
C    10.27999973   3.78999996  55.63000107
C    14.44000053   4.36999989  56.65999985
C    15.19000053   3.75000000  55.63000107
C    16.57999992   3.61000013  55.59000015
C     6.63999987   2.89999986  56.00000000
H     6.06929684   3.57771015  55.36509323
H    11.18999958   3.45999980  53.66000366
H    12.20000076   5.12000036  58.18999863
H     9.71000004   5.09999990  58.75000000
H     7.35000038   4.13000011  58.13000107
H     8.60000038   3.30000019  54.29000092
H    17.05000114   3.51000023  54.61999893
H     6.03999996   2.72000027  56.90000153
H     6.78999996   1.94000006  55.48999786
S    14.13000011   1.80000007  50.91999817
C    11.46999931   1.46000004  51.65000153
C    12.77999973   1.07000005  51.81000137
C    13.22999954   0.34999999  52.95999908
C    12.32999992  -0.14000000  53.88000107
C    10.95000076   0.11000000  53.62999725
C     9.94999981  -0.37000000  54.52999878
C     8.61999989  -0.28999999  54.20000076
C     8.14999962   0.28999999  53.00000000
C     9.10000038   0.88999999  52.19999695
C    10.50000000   0.81000000  52.45999908
C    14.68000031   0.46999997  53.08000183
C    15.32999992   1.28000009  52.11999893
C    16.69000053   1.58000004  52.09000015
C     6.70000029   0.62000000  52.75000000
H     6.33099842   0.13036355  51.84878159
H    11.21999931   2.26999998  50.97000122
H    12.64000034  -0.48000002  54.86000061
H    10.21999931  -0.81000000  55.47999954
H     7.96999979  -0.56000000  55.02999878
H     8.80999947   1.52999997  51.37000275
H    17.15999985   2.09000015  51.25999832
H     6.17000008   0.17999999  53.60000229
H     6.50000000   1.70000005  52.84999847
S    17.95999908   0.19000000  55.56999969
C    20.62999916   0.64000005  54.94999695
C    19.30999947   0.85000002  54.62999725
C    18.81999969   1.48000002  53.43999863
C    19.73999977   2.00000000  52.55000305
C    21.11000061   1.87999988  52.88999939
C    22.06000137   2.34999990  51.93999863
C    23.42000008   2.26999998  52.11000061
C    23.84000015   1.63000000  53.30999756
C    22.98000145   1.12000000  54.26000214
C    21.57999992   1.26999998  54.09999847
C    17.38999939   1.26999998  53.26000214
C    16.77000046   0.50999999  54.29000092
C    15.47000027   0.04000000  54.15000153
C    25.30999947   1.30999994  53.40999985
H    25.71452713   1.69323528  54.34679794
H    20.86000061  -0.05000000  55.77000046
H    19.43000031   2.36000013  51.56999969
H    21.68999863   2.51999998  50.93000031
H    24.02000046   2.56999993  51.25999832
H    23.25000000   0.56000000  55.14999771
H    15.07999992  -0.56000000  54.97000122
H    25.76000023   1.85000002  52.56999969
H    25.43999863   0.25999999  53.11000061
