96

S    17.17000008   4.99000025  58.72000122
C    19.86999893   5.17000008  58.02999878
C    18.60000038   4.74000025  57.70000076
C    18.23999977   4.23000002  56.40999603
C    19.27000046   4.11999989  55.48999786
C    20.62999916   4.40000010  55.77999878
C    21.68999863   4.03999996  54.89999771
C    22.98999977   4.39000034  55.19000244
C    23.26000023   5.05000019  56.42000198
C    22.26000023   5.26000023  57.32999802
C    20.88000107   5.03000021  57.04999924
C    16.80999947   4.05999994  56.23000336
C    16.11999893   4.55000019  57.36999893
C    14.75999928   4.84000015  57.32999802
C    24.63000107   5.64000034  56.65999985
H    25.18488121   5.15625715  57.46386337
H    20.10999870   5.75999975  58.90999603
H    19.05999947   3.74000025  54.50000000
H    21.35999870   3.75999975  53.90999603
H    23.72999954   4.19000006  54.43000031
H    22.47999954   5.69999981  58.30999756
H    14.35999966   5.38999987  58.18000031
H    25.20000076   5.51999998  55.72000122
H    24.56000137   6.71999979  56.81000137
S    13.61999989   3.74000025  53.67000198
C    10.90000057   3.86000013  54.36000061
C    12.22000027   4.07999992  54.69999695
C    12.56000042   4.46000004  56.04000092
C    11.56000042   4.69999981  56.95999908
C    10.22999954   4.32000017  56.66999817
C     9.19999981   4.40000010  57.65999603
C     7.90000010   4.26999998  57.25000000
C     7.50999975   3.78999996  55.97000122
C     8.52000046   3.61999989  55.05000305
C     9.85999966   4.00999975  55.31000137
C    14.01000023   4.46999979  56.20999908
C    14.68999958   3.98000002  55.06999969
C    16.06999969   3.84000015  55.06000137
C     6.07999992   3.40999985  55.63000107
H     5.62427664   4.05086136  54.87520599
H    10.65999985   3.32999992  53.43999863
H    11.85999966   4.94999981  57.97000122
H     9.36999989   4.78999996  58.66000366
H     7.07999992   4.28000021  57.95999908
H     8.36999989   3.50000000  53.97999573
H    16.50000000   3.68000007  54.06999969
H     5.40000010   3.40000010  56.49000168
H     6.12999964   2.33999991  55.40000153
S    13.68999958   1.51999998  50.98999786
C    10.98000050   1.21000004  51.63000107
C    12.30000019   1.04999995  51.97999954
C    12.69999981   0.57999998  53.27000046
C    11.76000023   0.34999999  54.26000214
C    10.38000011   0.37000000  53.92000198
C     9.35999966  -0.04000000  54.80999756
C     8.02999973   0.00000000  54.45000076
C     7.68000031   0.55000001  53.18999863
C     8.64000034   0.85000002  52.25000000
C    10.01999950   0.81000000  52.60000229
C    14.14999962   0.52999997  53.40999985
C    14.81999969   1.04999995  52.27000427
C    16.18999863   1.26999998  52.18000031
C     6.24000025   0.90999997  52.88999939
H     5.83643007   0.23030388  52.13950348
H    10.71000004   1.65000010  50.66999817
H    12.10000038   0.19000000  55.27999878
H     9.53999996  -0.43000001  55.80999756
H     7.25000000  -0.32999998  55.12000275
H     8.34000015   1.30999994  51.31000137
H    16.72000122   1.79000008  51.38000107
H     5.65999985   0.90000004  53.81000137
H     6.24000025   1.94000006  52.50999832
S    17.47999954  -0.09000000  55.70999908
C    20.15999985   0.38000000  55.01999664
C    18.81999969   0.52999997  54.72999954
C    18.38000107   1.03999996  53.47000122
C    19.34999847   1.58000004  52.63999939
C    20.72999954   1.57000005  52.93000031
C    21.73999977   2.01999998  52.02999878
C    23.06999969   1.72999990  52.25000000
C    23.50000000   1.07000005  53.43000031
C    22.52000046   0.55000001  54.23999786
C    21.12999916   0.86000001  54.10999680
C    16.97999954   0.76999998  53.22000122
C    16.35000038   0.25000000  54.38000107
C    14.96999931   0.12000000  54.47000122
C    24.93999863   0.67000002  53.67000198
H    25.38113403   1.23920608  54.48823547
H    20.45000076  -0.38000000  55.73999786
H    19.00000000   1.92000008  51.66999817
H    21.44000053   2.46000004  51.07999802
H    23.77000046   1.99000001  51.46999741
H    22.80999947   0.08000001  55.17000198
H    14.57999992  -0.25999999  55.40999985
H    25.63999939   0.73000002  52.83000183
H    24.86999893  -0.37000000  54.00000000
