96

S    17.32999992   4.92999983  58.94000244
C    20.00999832   4.98000002  58.16999817
C    18.71000099   4.69000006  57.84000015
C    18.36000061   4.13999987  56.56999969
C    19.40000153   3.91999984  55.68000031
C    20.76000023   4.11999989  56.02000427
C    21.84000015   3.94000006  55.11000061
C    23.12000084   4.34999990  55.40000153
C    23.43000031   4.88999987  56.68000031
C    22.44999886   4.90000010  57.63999939
C    21.09000015   4.61000013  57.32999802
C    16.92000008   4.26000023  56.40999603
C    16.21999931   4.69000006  57.56999969
C    14.84000015   4.77999973  57.64999771
C    24.86000061   5.23999977  56.98999786
H    25.29475021   4.61994457  57.77397919
H    20.22000122   5.59999990  59.03999710
H    19.22999954   3.58000016  54.65999985
H    21.60000038   3.60000014  54.10999680
H    23.85999870   4.39000034  54.61000061
H    22.70000076   5.05000019  58.68999863
H    14.32000065   4.88000011  58.59000397
H    25.38000107   5.26999998  56.02000427
H    24.82999992   6.28999996  57.29999924
S    13.60999966   3.58999991  54.09999847
C    10.88999939   3.52999973  54.88999939
C    12.20999908   3.79999995  55.15999603
C    12.64999962   4.32999992  56.42000198
C    11.71000004   4.57999992  57.39999771
C    10.34000015   4.36999989  57.11000061
C     9.35000038   4.55999994  58.11999893
C     8.05999947   4.19000006  57.83000183
C     7.60999966   3.60000014  56.62000275
C     8.52999973   3.51000023  55.59999847
C     9.89000034   3.88000011  55.84000015
C    14.09000015   4.53999996  56.49000168
C    14.77000046   4.21000004  55.28999710
C    16.13999939   3.98000002  55.27999878
C     6.12999964   3.45000005  56.38000107
H     5.80409908   3.99552917  55.49440002
H    10.60999966   2.94000006  54.02999878
H    12.05000019   4.92999983  58.37999725
H     9.61000061   5.07000017  59.05000305
H     7.23000002   4.53999996  58.43000031
H     8.31999969   3.14000010  54.59999847
H    16.55999947   3.35000014  54.50000000
H     5.56999969   3.81999993  57.25000000
H     5.92999983   2.39999986  56.14999771
S    14.44000053   1.56000006  51.02000427
C    11.84000015   1.02999997  51.60999680
C    13.15000057   0.81000000  51.97000122
C    13.50000000   0.32000002  53.27000046
C    12.50000000  -0.12000000  54.12000275
C    11.14999962   0.01000000  53.70999908
C    10.08999920  -0.46000001  54.52999878
C     8.78000069  -0.17000002  54.22999954
C     8.43000031   0.59999996  53.09000015
C     9.42000008   0.96000004  52.19999695
C    10.77999973   0.64999998  52.48000336
C    14.93000031   0.50999999  53.50000000
C    15.47999954   1.22000003  52.41000366
C    16.82999992   1.57000005  52.49000168
C     7.00999975   1.11000001  52.97999954
H     6.42671299   0.47692013  52.31135559
H    11.52999973   1.50999999  50.68000031
H    12.74000072  -0.64000005  55.04000092
H    10.36000061  -0.79000002  55.52999878
H     8.00000000  -0.38000000  54.95999908
H     9.26000023   1.57000005  51.31000137
H    17.39999962   2.07999992  51.72000122
H     6.60000038   1.02999997  53.99000168
H     7.02000046   2.11999989  52.56000137
S    18.26000023   0.01000000  55.83000183
C    20.94000053   0.50999999  55.12000275
C    19.59000015   0.59999996  54.82999802
C    19.13999939   1.00999999  53.53000259
C    20.10000038   1.46000004  52.64999771
C    21.50000000   1.42000008  52.88999939
C    22.42000198   2.00000000  51.97000122
C    23.75000000   1.87999988  52.29000092
C    24.20000076   1.28000009  53.48999786
C    23.29999924   0.86000001  54.45000076
C    21.90999985   0.86000001  54.15000153
C    17.69000053   1.04999995  53.47000122
C    17.06999969   0.39999998  54.56999969
C    15.70000076   0.13000000  54.59999847
C    25.69000053   1.14999998  53.67000198
H    26.03240967   1.42107260  54.66868973
H    21.28000069   0.00000000  56.02000427
H    19.70000076   1.88999999  51.72999954
H    22.17000008   2.38000011  50.97999954
H    24.46000099   2.21000004  51.53999710
H    23.55999947   0.41000003  55.40000153
H    15.22999954  -0.41000003  55.40999985
H    26.19999886   1.81999993  52.97000122
H    25.94000053   0.12000000  53.39000320
