96

S    17.10000038   5.19999981  58.68999863
C    19.77000046   5.46000004  57.95000076
C    18.51000023   5.00999975  57.63999939
C    18.19000053   4.42999983  56.37000275
C    19.22999954   4.26999998  55.47000122
C    20.56999969   4.42999983  55.90999985
C    21.61000061   4.00999975  55.04000092
C    22.90999985   4.35999966  55.31000137
C    23.19999886   5.23000002  56.39999771
C    22.21999931   5.56999969  57.29999924
C    20.86999893   5.13000011  57.11999893
C    16.73999977   4.32000017  56.23000336
C    16.01000023   4.85000038  57.31999969
C    14.65000057   5.09999990  57.27000427
C    24.61999893   5.66999960  56.63999939
H    25.05430603   5.05769920  57.43029404
H    20.00000000   6.02999973  58.85000229
H    19.05999947   3.72000003  54.54999924
H    21.38999939   3.77999997  54.00000000
H    23.68000031   4.13999987  54.58000183
H    22.44999886   6.10000038  58.22999954
H    14.09999943   5.32000017  58.18000031
H    25.22999954   5.59999990  55.73999786
H    24.59000015   6.69000053  57.04000092
S    13.56999969   3.40999985  53.86000061
C    10.84000015   3.77999997  54.43000031
C    12.15999985   3.91999984  54.80999756
C    12.48000050   4.55000019  56.05999756
C    11.44000053   4.72000027  56.95999908
C    10.07999992   4.44000006  56.70000076
C     9.03999996   4.48000002  57.68000031
C     7.76999998   4.15000010  57.27000427
C     7.51999950   3.75999975  55.93000031
C     8.46000004   3.74000025  54.93000031
C     9.80000019   3.96000004  55.37000275
C    13.92000008   4.69999981  56.14999771
C    14.63999939   4.19000006  55.04000092
C    16.01000023   3.91999984  55.10000229
C     6.12999964   3.28000021  55.56000137
H     5.60362005   4.01266384  54.94826126
H    10.65000057   3.42000008  53.43000031
H    11.72999954   5.01999950  57.95999908
H     9.26999950   4.88000011  58.66000366
H     7.00999975   4.13999987  58.04000092
H     8.31999969   3.47000003  53.88000107
H    16.54999924   3.49000001  54.27000046
H     5.64000034   3.10999990  56.52999878
H     6.11000013   2.29999995  55.06000137
S    14.22000027   1.70000005  50.79000092
C    11.49000072   1.33000004  51.43000031
C    12.81999969   1.00000000  51.60999680
C    13.19000053   0.23000000  52.76000214
C    12.28000069  -0.31000000  53.64999771
C    10.92000008   0.03000000  53.47000122
C     9.94000053  -0.45000002  54.38999939
C     8.60000038  -0.41999999  54.09999847
C     8.19999981   0.38000000  52.98999786
C     9.13000011   0.90999997  52.12999725
C    10.53999996   0.87000000  52.36000061
C    14.61999989   0.34000003  53.04000092
C    15.31000042   1.03999996  52.02999878
C    16.62999916   1.48000002  52.04000092
C     6.74000025   0.71000004  52.77999878
H     6.24422121   0.15047812  51.98675156
H    11.06999969   1.80999994  50.54999924
H    12.56999969  -0.65999997  54.64000320
H    10.13000011  -1.03999996  55.27999878
H     7.83999968  -0.78000003  54.79000092
H     8.86999989   1.38999999  51.18999863
H    17.05999947   2.05999994  51.22000122
H     6.15000010   0.62000000  53.69999695
H     6.71000004   1.74000001  52.41000366
S    17.77000046   0.16000001  55.59999847
C    20.51000214   0.55000001  55.06999969
C    19.19000053   0.74000001  54.71000290
C    18.82999992   1.25000000  53.41999817
C    19.80999947   1.67999995  52.54000092
C    21.18000031   1.58000004  52.91999817
C    22.25000000   1.90999997  52.04999924
C    23.57000160   1.69000006  52.36000061
C    23.88000107   1.19000006  53.64999771
C    22.88999939   0.83999997  54.54000092
C    21.52000046   0.97000003  54.16999817
C    17.40999985   1.08999991  53.13000107
C    16.72999954   0.43000001  54.18000031
C    15.39000034   0.07000000  54.18000031
C    25.36000061   0.93000001  53.88999939
H    25.77296638   1.25752425  54.84408951
H    20.75000000   0.00000000  55.97999954
H    19.64999962   2.00000000  51.52000046
H    21.91999817   2.20000005  51.05999756
H    24.41999817   1.80999994  51.69000244
H    23.15000153   0.45000002  55.51000214
H    14.93999958  -0.25000000  55.11000061
H    25.86000061   1.16999996  52.95000076
H    25.53999901  -0.14999999  53.83999634
