96

S    17.23999977   5.12000036  58.93000031
C    19.93000031   5.26999998  58.20999908
C    18.67000008   4.77999973  57.94000244
C    18.29000092   4.07000017  56.75000000
C    19.32999992   3.76999998  55.89000320
C    20.63999939   4.23000002  56.14999771
C    21.70000076   4.07000017  55.20999908
C    23.02000046   4.40000010  55.45999908
C    23.35000038   5.13999987  56.63000107
C    22.29999924   5.51000023  57.43999863
C    21.00000000   4.92999983  57.35000229
C    16.84000015   4.03999996  56.59000015
C    16.10999870   4.63999987  57.63999939
C    14.73999977   4.88000011  57.55000305
C    24.72999954   5.66999960  56.93000031
H    25.15730476   5.15723372  57.79173279
H    20.06999969   5.93999958  59.05000305
H    19.04000092   3.35000014  54.93000031
H    21.40999985   3.63999987  54.26000214
H    23.72999954   4.18000031  54.66999817
H    22.49000168   6.32999992  58.11999893
H    14.15999985   5.10999966  58.43999863
H    25.39999962   5.59999990  56.05999756
H    24.63999939   6.75000000  57.11000061
S    13.73000050   3.44000006  53.97999573
C    11.03000069   3.32999992  54.61999893
C    12.27000046   3.81999993  54.93000031
C    12.63000011   4.48000002  56.14999771
C    11.59000015   4.63999987  57.04999924
C    10.26000023   4.28000021  56.73999786
C     9.18000031   4.48999977  57.64999771
C     7.90000010   4.07999992  57.36999893
C     7.60999966   3.49000001  56.11999893
C     8.60999966   3.25999999  55.20000076
C     9.94999981   3.65000010  55.48999786
C    14.06999969   4.55999994  56.37000275
C    14.78999996   3.97000027  55.30000305
C    16.14999962   3.70000005  55.41999817
C     6.19000006   3.17000008  55.72000122
H     5.67382240   3.85588002  55.04826355
H    10.86999989   2.75000000  53.70999908
H    11.90999985   4.85000038  58.06999969
H     9.42000008   4.92999983  58.61999893
H     7.09999990   4.44000006  58.01000214
H     8.36000061   2.84000015  54.22999954
H    16.54000092   3.07000017  54.62999725
H     5.59000015   2.99000001  56.62000275
H     6.34000015   2.16000009  55.31999969
S    14.21000004   1.43000007  50.84000015
C    11.56999969   0.90999997  51.44000244
C    12.89000034   0.76999998  51.81999969
C    13.30000019   0.13000000  53.02999878
C    12.35000038  -0.35999998  53.90999603
C    10.98999977  -0.24000001  53.52000427
C     9.98999977  -0.71999997  54.40999985
C     8.65999985  -0.56000000  54.10999680
C     8.27000046   0.09000000  52.90000153
C     9.19000053   0.67000002  52.05999756
C    10.57000065   0.39000002  52.29999924
C    14.72000027   0.39999998  53.25000000
C    15.31000042   1.15999997  52.21000290
C    16.64999962   1.52999997  52.23999786
C     6.77999973   0.24000001  52.69000244
H     6.52315569   0.04736695  51.64835739
H    11.36000061   1.44999993  50.52999878
H    12.63000011  -0.76999998  54.86999893
H    10.26999950  -1.14999998  55.37000275
H     7.90000010  -0.97999996  54.77000427
H     8.97000027   1.26999998  51.18000031
H    16.97999954   2.05999994  51.35000229
H     6.23000050  -0.48000002  53.30999756
H     6.52999973   1.23000002  53.08000183
S    18.00000000   0.02000000  55.65999985
C    20.65000153   0.50000000  55.06999969
C    19.34999847   0.57999998  54.65000153
C    18.88000107   1.22000003  53.44999695
C    19.86999893   1.70000005  52.62000275
C    21.25000000   1.56000006  52.90999985
C    22.22999954   2.02999997  52.00000000
C    23.54000092   1.87000012  52.38999939
C    23.97000122   1.25999999  53.60000229
C    23.02000046   0.82999998  54.50000000
C    21.63999939   0.93999994  54.15000153
C    17.43000031   1.18000007  53.34999847
C    16.82999992   0.43000001  54.40000153
C    15.51000023  -0.00000000  54.33000183
C    25.40999985   0.82999998  53.74000168
H    25.84307861   1.29147780  54.62746048
H    21.05999947   0.05000000  55.97000122
H    19.54000092   2.09000015  51.65999985
H    21.97000122   2.39999986  51.00999832
H    24.23999977   2.09000015  51.59999847
H    23.36000061   0.19000000  55.31999969
H    15.14000034  -0.54000002  55.20999908
H    25.92000008   1.01999998  52.78999710
H    25.40999985  -0.25000000  53.90999603
