96

S    17.14999962   4.99000025  58.82999802
C    19.85000038   5.03999996  58.16999817
C    18.55999947   4.73000002  57.78999710
C    18.26000023   4.32999992  56.45000076
C    19.22999954   4.13999987  55.47999954
C    20.58000183   4.30999994  55.86999893
C    21.61999893   4.17000008  54.89999771
C    22.89999962   4.53999996  55.25000000
C    23.21000099   5.09999990  56.52000046
C    22.19000053   5.26000023  57.43000031
C    20.85000038   4.84000015  57.18000031
C    16.80999947   4.36999989  56.31000137
C    16.05999947   4.77999973  57.44999695
C    14.70000076   5.03999996  57.41000366
C    24.61999893   5.51999998  56.86000061
H    25.07572365   4.87913752  57.61479187
H    20.06000137   5.72000027  58.99000168
H    19.00000000   3.79999995  54.47999954
H    21.38999939   3.88000011  53.88000107
H    23.61999893   4.55999994  54.43999863
H    22.32000160   5.84000015  58.33000183
H    14.11000061   5.26000023  58.29000092
H    25.30999947   5.55999994  56.02000427
H    24.60000038   6.53999996  57.27000427
S    13.66000080   3.77999997  53.79000092
C    10.90000057   3.73000002  54.51000214
C    12.22000027   3.98000002  54.79999924
C    12.51999950   4.51000023  56.09000397
C    11.56000042   4.65000010  57.08000183
C    10.21999931   4.32999992  56.75000000
C     9.22000027   4.41000032  57.76000214
C     7.90000010   4.25000000  57.41000366
C     7.50000000   3.81000018  56.11999893
C     8.46000004   3.67000008  55.13999939
C     9.82999992   3.88000011  55.43000031
C    13.96000004   4.65999985  56.27999878
C    14.70000076   4.15000010  55.18000031
C    16.07999992   3.97000027  55.19000244
C     6.09000015   3.42999983  55.70999908
H     5.70466805   3.97231913  54.84656906
H    10.69000053   3.49000001  53.47000122
H    11.87000084   5.03000021  58.04000092
H     9.48000050   4.57999992  58.80000305
H     7.09999990   4.46000004  58.11999893
H     8.19999981   3.28999996  54.15999985
H    16.61999893   3.67000008  54.29000092
H     5.49000025   3.58999991  56.62000275
H     6.09000015   2.38000011  55.40000153
S    14.04999924   1.81999993  50.80999756
C    11.44000053   1.25999999  51.44000244
C    12.76000023   1.15999997  51.81999969
C    13.23999977   0.48000002  52.98999786
C    12.23999977   0.01000000  53.82999802
C    10.85999966   0.12000000  53.54999924
C     9.81999969  -0.25999999  54.45000076
C     8.47999954  -0.09999999  54.20000076
C     8.11999989   0.57999998  53.01000214
C     9.07999992   1.05999994  52.15000153
C    10.46000004   0.75999999  52.32999802
C    14.68000031   0.61000001  53.13000107
C    15.24000072   1.29999995  52.02000046
C    16.60000038   1.56000006  51.90999985
C     6.67000008   0.83999997  52.69000244
H     6.37257767   0.54257774  51.68442917
H    11.18999958   1.87000012  50.56999969
H    12.50000000  -0.59000003  54.69999695
H    10.08999920  -0.88000000  55.31000137
H     7.77999973  -0.41000003  54.97000122
H     8.67000008   1.64000010  51.32999802
H    17.02000046   2.02999997  51.03000259
H     6.07999992   0.46000001  53.54000092
H     6.51999998   1.92000008  52.71999741
S    17.94999886   0.22000000  55.47000122
C    20.59000015   0.88000000  54.80999756
C    19.25000000   0.88000000  54.47000122
C    18.78000069   1.34000003  53.20000076
C    19.71999931   1.62000000  52.22000122
C    21.09999847   1.49000001  52.51999664
C    22.11999893   1.94999993  51.65000153
C    23.45999908   2.00999999  51.95000076
C    23.92999840   1.54999995  53.20999908
C    22.98000145   1.08999991  54.09000015
C    21.57999992   1.13999999  53.82999802
C    17.34000015   1.19000006  53.04000092
C    16.77999878   0.54000002  54.16999817
C    15.46000004   0.11000000  54.18000031
C    25.28000069   2.07999992  53.63999939
H    25.65032387   1.50314999  54.48746872
H    20.79999924   0.44000000  55.77999878
H    19.45999908   1.90999997  51.20999908
H    21.70999908   2.39999986  50.75000000
H    24.18999863   2.53999996  51.33999634
H    23.29000092   0.87000000  55.11000061
H    15.13000011  -0.46999997  55.02999878
H    25.22000122   3.15000010  53.87000275
H    25.94000053   2.03999996  52.76000214
