96

S    17.10000038   4.94000006  58.85000229
C    19.81999969   4.74000025  58.29000092
C    18.53000069   4.48000002  57.90000153
C    18.20999908   4.00000000  56.58000183
C    19.19999886   3.79999995  55.63999939
C    20.51000214   4.19999981  55.97999954
C    21.59000015   4.13000011  55.06000137
C    22.86000061   4.55000019  55.38999939
C    23.21000099   5.00999975  56.69000244
C    22.13999939   5.18000031  57.54000092
C    20.81999969   4.73000002  57.29000092
C    16.77000046   3.98999977  56.42000198
C    16.02000046   4.48000002  57.51999664
C    14.65000057   4.67999983  57.54000092
C    24.60000038   5.51000023  56.97999954
H    25.10493279   4.84860897  57.68406296
H    20.10999870   5.13000011  59.27000046
H    19.20999908   3.32999992  54.65999985
H    21.40999985   3.81999993  54.02999878
H    23.64000130   4.44999981  54.65000153
H    22.27999878   5.68000031  58.50000000
H    14.06999969   4.94000006  58.43000031
H    25.12000084   5.71000004  56.03000259
H    24.46000099   6.48999977  57.47000122
S    13.55999947   3.42000008  53.92000198
C    10.88000107   3.22000003  54.64000320
C    12.15000057   3.65999985  54.95999908
C    12.46000099   4.21000004  56.25000000
C    11.42000008   4.36999989  57.15000153
C    10.07999992   4.11999989  56.77999878
C     9.02000046   4.28999996  57.70999908
C     7.72000027   3.98000002  57.38999939
C     7.46999979   3.30000019  56.17000198
C     8.45000076   3.17999983  55.20999908
C     9.81000042   3.42999983  55.54000092
C    13.89999962   4.34999990  56.39999771
C    14.60999966   3.84000015  55.27999878
C    16.00000000   3.76999998  55.27000046
C     6.03999996   2.89999986  55.90999985
H     5.61928606   3.65585899  55.24684143
H    10.72000027   2.64999986  53.73000336
H    11.64000034   4.71000004  58.15999985
H     9.26000023   4.61000013  58.73000336
H     6.89000034   4.19000006  58.06000137
H     8.23000050   2.73000002  54.23999786
H    16.48999977   3.48000002  54.34000015
H     5.47999954   2.73000002  56.84000015
H     6.05999994   1.95999992  55.34000015
S    14.27999973   1.64000010  51.04999924
C    11.64000034   0.75000000  51.47999573
C    12.97000027   0.73000002  51.83000183
C    13.38999939   0.19999999  53.09000015
C    12.43999958  -0.37000000  53.90999603
C    11.06999969  -0.44000000  53.55999756
C    10.05000019  -0.79000002  54.48999786
C     8.71999931  -0.59999996  54.22000122
C     8.32999992  -0.00000000  52.98999786
C     9.28999996   0.29999998  52.04999924
C    10.67000008   0.09000000  52.28000259
C    14.80999947   0.43000001  53.33000183
C    15.44000053   1.19999993  52.31999969
C    16.77000046   1.58999991  52.31999969
C     6.91999960   0.50000000  52.81000137
H     6.37772703   0.18605271  51.91810608
H    11.35000038   1.48000002  50.72999954
H    12.75000000  -0.64000005  54.92000198
H    10.36999893  -1.23000002  55.43000031
H     7.97999954  -0.88000000  54.95999908
H     8.93999958   0.83999997  51.17000198
H    17.15999985   2.17999983  51.49000168
H     6.32999992   0.27000001  53.70999908
H     6.90999985   1.59999990  52.80000305
S    18.01000023   0.00000000  55.77000046
C    20.71000099   0.39000002  55.20999908
C    19.40000153   0.55000001  54.80999756
C    19.02000046   1.16999996  53.57999802
C    20.00999832   1.67999995  52.76000214
C    21.37000084   1.43000007  53.04999924
C    22.43999863   1.81999993  52.18999863
C    23.74000168   1.82999992  52.63000107
C    24.05999947   1.21000004  53.87000275
C    23.08000183   0.71000004  54.68999863
C    21.70999908   0.79999995  54.29999924
C    17.57999992   1.13000000  53.36999893
C    16.93000031   0.48000002  54.45000076
C    15.60999966   0.04000000  54.40999985
C    25.46999931   0.83999997  54.29000092
H    25.94062805   1.40332890  55.09577179
H    20.93000031  -0.07000000  56.17000198
H    19.88999939   2.11999989  51.77000046
H    22.10000038   2.21000004  51.23000336
H    24.48999786   2.17999983  51.91999817
H    23.31999969   0.37000000  55.68999863
H    15.19000053  -0.57999998  55.20000076
H    26.09999847   0.87000000  53.39000320
H    25.43999863  -0.24000001  54.48999786
