96

S    17.14999962   4.63999987  58.86000061
C    19.89999962   4.75000000  58.20999908
C    18.59000015   4.55999994  57.83000183
C    18.22999954   4.30999994  56.46999741
C    19.23999977   4.07999992  55.56000137
C    20.59999847   4.23999977  55.93000031
C    21.65999985   3.93000007  55.01999664
C    22.95000076   4.21000004  55.40000153
C    23.31000137   4.61000013  56.70999908
C    22.32000160   4.72000027  57.65999603
C    20.95999908   4.61999989  57.27000427
C    16.79000092   4.32999992  56.24000168
C    16.09000015   4.65000010  57.43999863
C    14.70999908   4.80999994  57.43999863
C    24.75000000   4.92000008  57.05999756
H    25.17030907   4.35721445  57.89349365
H    20.03999901   5.10999966  59.22000122
H    18.93000031   3.74000025  54.58000183
H    21.47000122   3.48000002  54.05000305
H    23.71000099   3.93000007  54.66999817
H    22.65999985   4.88000011  58.68000031
H    14.18000031   4.90999985  58.37999725
H    25.35000038   4.86000013  56.13999939
H    24.80999947   5.98999977  57.31999969
S    13.53999996   3.71000004  53.79000092
C    10.85999966   3.86000013  54.45999908
C    12.15000057   4.21999979  54.78000259
C    12.53999901   4.59000015  56.11000061
C    11.51000023   4.74000025  57.02000046
C    10.14999962   4.51999998  56.69000244
C     9.03999996   4.71000004  57.55000305
C     7.81000042   4.13999987  57.32999802
C     7.44999981   3.65999985  56.04000092
C     8.47000027   3.61000013  55.12000275
C     9.81000042   3.96000004  55.40000153
C    13.97999954   4.61999989  56.25999832
C    14.65999985   4.18000031  55.08999634
C    16.03999901   4.07999992  55.07999802
C     6.00000000   3.35999990  55.70999908
H     5.55863047   3.95798469  54.91268539
H    10.64000034   3.45999980  53.47000122
H    11.90000057   5.05999994  57.98999786
H     9.26000023   5.23999977  58.47000122
H     7.04999971   4.23000002  58.09999847
H     8.28999996   3.35000014  54.08000183
H    16.50000000   3.63999987  54.20000076
H     5.51000023   3.60000014  56.65999985
H     5.75999975   2.30999994  55.50000000
S    17.77000046   5.40999985  52.65999603
C    20.46999931   5.53999996  52.01000214
C    19.19999886   5.13999987  51.65000153
C    18.86999893   4.59000015  50.37000275
C    19.89999962   4.48999977  49.45000076
C    21.22999954   4.88999987  49.75000000
C    22.32999992   4.69000006  48.88000107
C    23.59000015   5.14999962  49.18000031
C    23.87000084   5.64000034  50.47999954
C    22.84000015   5.84000015  51.37000275
C    21.51000023   5.42999983  51.04999924
C    17.43999863   4.53999996  50.13999939
C    16.72999954   4.92999983  51.31000137
C    15.34999943   5.07000017  51.38000107
C    25.25000000   5.98000002  51.00999832
H    25.68535805   5.26630020  51.70942307
H    20.65000153   5.98000002  52.98999786
H    19.62000084   4.25000000  48.43000031
H    22.20000076   4.23000002  47.90000153
H    24.46000099   5.07000017  48.54000092
H    22.96999931   6.21999979  52.37999725
H    14.81999969   5.65999985  52.11000061
H    25.84000015   6.05999994  50.07999802
H    25.26000023   6.98999977  51.45000076
S    14.32999992   3.82999992  47.68000031
C    11.61999893   4.19000006  48.25000000
C    12.93000031   4.40000010  48.61000061
C    13.23999977   4.76000023  49.95999908
C    12.27000046   5.21000004  50.84000015
C    10.92000008   5.01999950  50.47000122
C     9.90999985   5.19999981  51.45000076
C     8.64000034   4.77999973  51.11999893
C     8.36999989   4.11999989  49.89999771
C     9.26999950   4.01999998  48.86000061
C    10.59999943   4.40000010  49.20999908
C    14.67000008   4.69999981  50.20999908
C    15.34000015   4.11999989  49.09999847
C    16.72999954   4.00999975  49.05000305
C     6.98000002   3.54999995  49.71000290
H     6.43120432   4.14868641  48.98302460
H    11.44999981   3.68999982  47.29999924
H    12.44999981   5.33999968  51.90999985
H    10.17000008   5.55999994  52.43999863
H     7.81000042   4.90000010  51.81000137
H     9.04999924   3.55999994  47.90000153
H    17.27000046   3.65000010  48.18000031
H     6.48999977   3.67000008  50.68000031
H     7.03999996   2.49000001  49.41999817
