96

S    17.42000008   5.14999962  58.89999771
C    20.12000084   5.35000038  58.15000153
C    18.84000015   4.92000008  57.85999680
C    18.50000000   4.30999994  56.60999680
C    19.47999954   4.13000011  55.65000153
C    20.79999924   4.57999992  55.91999817
C    21.87000084   4.38000011  55.00000000
C    23.15999985   4.77999973  55.27999878
C    23.54000092   5.09999990  56.60999680
C    22.52000046   5.32000017  57.50000000
C    21.14000130   5.17000008  57.18000031
C    17.05999947   4.15000010  56.50000000
C    16.32999992   4.69000006  57.57999802
C    14.93999958   4.67999983  57.62000275
C    24.94999886   5.53999996  56.95000076
H    25.41046143   4.92368793  57.72216034
H    20.29000092   5.86000013  59.09999847
H    19.25000000   3.45999980  54.82999802
H    21.61000061   3.94000006  54.03999710
H    23.90999985   4.78999996  54.50000000
H    22.79000092   5.65000010  58.50000000
H    14.46000004   5.05000019  58.52000427
H    25.65000153   5.59000015  56.11000061
H    24.80999947   6.57999992  57.27000427
S    13.86000061   3.45999980  53.99000168
C    11.13999939   3.51999998  54.64000320
C    12.43999958   3.81999993  54.99000168
C    12.77999973   4.19000006  56.32999802
C    11.77000046   4.48000002  57.22999954
C    10.40999985   4.25000000  56.90999985
C     9.34000015   4.44000006  57.83000183
C     8.09000015   4.03999996  57.42000198
C     7.85000038   3.28999996  56.24000168
C     8.78999996   3.35999990  55.25000000
C    10.11999989   3.71000004  55.61000061
C    14.22000027   4.30000019  56.47999573
C    14.93999958   3.86000013  55.34000015
C    16.31999969   3.72000003  55.38999939
C     6.48000002   2.73000002  55.90000153
H     5.91700935   3.35712886  55.20873260
H    10.98999977   3.19000006  53.61999893
H    11.87999916   4.79999971  58.26000214
H     9.52000046   4.81999969  58.82999802
H     7.34000015   4.13000011  58.20000076
H     8.59000015   3.01999998  54.22999954
H    16.86000061   3.51000023  54.47000122
H     5.96000004   2.71000004  56.86999893
H     6.57999992   1.72000003  55.47000122
S    14.19999981   1.50999999  50.79000092
C    11.54000092   1.07000005  51.52999878
C    12.88000011   0.88999999  51.79999924
C    13.32999992   0.32000002  53.04000092
C    12.35000038  -0.16000001  53.88999939
C    10.97000027  -0.07000000  53.61000061
C     9.98000050  -0.62000000  54.47000122
C     8.64000034  -0.50999999  54.18000031
C     8.17000008   0.14999999  53.01000214
C     9.13000011   0.68000007  52.18000031
C    10.52999973   0.63000000  52.43000031
C    14.75999928   0.52999997  53.15999985
C    15.39999962   1.11000001  52.04000092
C    16.75000000   1.43999994  52.09000015
C     6.70000029   0.44000000  52.84999847
H     6.30175924   0.09153891  51.89706802
H    11.14999962   1.36000013  50.56000137
H    12.68000031  -0.74000001  54.73999786
H    10.29000092  -1.02999997  55.41999817
H     7.86999989  -0.79999995  54.88999939
H     8.89999962   1.29999995  51.31000137
H    17.27000046   1.90999997  51.25000000
H     6.17999983   0.12000000  53.75999832
H     6.56000042   1.52999997  52.90000153
S    17.93000031   0.07000000  55.68999863
C    20.65000153   0.68000007  55.12000275
C    19.31999969   0.69000000  54.77000427
C    18.89000130   1.29999995  53.54999924
C    19.81999969   1.77999997  52.64999771
C    21.18999863   1.52999997  52.91999817
C    22.11000061   1.98000002  51.93000031
C    23.45000076   1.84000003  52.22000122
C    23.95000076   1.36999989  53.46000290
C    23.05000114   0.97000003  54.41999817
C    21.64999962   0.97999996  54.16999817
C    17.47999954   1.13000000  53.23999786
C    16.86000061   0.46999997  54.33000183
C    15.48999977   0.23000000  54.31999969
C    25.45000076   1.36000013  53.68999863
H    25.72659302   1.67205393  54.69708252
H    20.88000107   0.14999999  56.04000092
H    19.50000000   2.23000002  51.70999908
H    21.75000000   2.56000018  51.09000397
H    24.21999931   2.10999990  51.50000000
H    23.40999985   0.71000004  55.40999985
H    15.06999969  -0.25999999  55.19000244
H    26.02999878   1.89999998  52.94000244
H    25.72999954   0.31000000  53.63999939
