96

S    17.21999931   5.15999985  58.66000366
C    19.90999985   5.15999985  58.09000015
C    18.63999939   4.96000004  57.61000061
C    18.32999992   4.57999992  56.26999664
C    19.37999916   4.38000011  55.38999939
C    20.68000031   4.77999973  55.79000092
C    21.73000145   4.57999992  54.85000229
C    23.02999878   4.76000023  55.25000000
C    23.35000038   5.05999994  56.59999847
C    22.34999847   5.19000006  57.52999878
C    20.97999954   5.03000021  57.16999817
C    16.87999916   4.44999981  56.16000366
C    16.13000107   4.80999994  57.30999756
C    14.73999977   4.88999987  57.34000397
C    24.71999931   5.42999983  57.12999725
H    25.10269165   4.80635452  57.93790436
H    20.10999870   5.40000010  59.13000107
H    19.20999908   3.97000027  54.40000153
H    21.53000069   4.23999977  53.83999634
H    23.82999802   4.88000011  54.52000046
H    22.43000031   5.59999990  58.54000092
H    14.22000027   5.35000038  58.16999817
H    25.50000000   5.38000011  56.36000061
H    24.79999924   6.44999981  57.51999664
S    13.71000099   3.51999998  53.79000092
C    10.95999908   3.51000023  54.40999985
C    12.23999977   3.91000009  54.69999695
C    12.56000042   4.44999981  55.98999786
C    11.59000015   4.76999998  56.90999985
C    10.26999950   4.33999968  56.65000153
C     9.22999954   4.42000008  57.62000275
C     7.92000008   4.07000017  57.36999893
C     7.57999992   3.47000003  56.13999939
C     8.57999992   3.37000012  55.20000076
C     9.94999981   3.73000002  55.38000107
C    14.00000000   4.51000023  56.20999908
C    14.75999928   4.07999992  55.10000229
C    16.14999962   4.02999973  55.04000092
C     6.25000000   2.79999995  55.86000061
H     5.61389399   3.45040083  55.25962830
H    10.67999935   2.98000002  53.50000000
H    11.89000034   5.10999966  57.90000153
H     9.48000050   4.78999996  58.61000061
H     7.16000032   4.15999985  58.13999939
H     8.31999969   3.03999996  54.19000244
H    16.59000015   3.86999989  54.06999969
H     5.71000004   2.66000009  56.81000137
H     6.37000036   1.80999994  55.40000153
S    13.86999989   1.43000007  50.86000061
C    11.18999958   0.97000003  51.52999878
C    12.53000069   0.79999995  51.81999969
C    12.90999985   0.16000001  53.04999924
C    12.01000023  -0.29999998  53.97999573
C    10.62999916  -0.12000000  53.72000122
C     9.59000015  -0.50999999  54.61000061
C     8.27999973  -0.28999999  54.25000000
C     7.92999983   0.46999997  53.11000061
C     8.89000034   0.82000005  52.18999863
C    10.25000000   0.46000001  52.45999908
C    14.35999966   0.27000001  53.22000122
C    14.98999977   0.97999996  52.16999817
C    16.34000015   1.30999994  52.18000031
C     6.48999977   0.82000005  52.81000137
H     6.14959908   0.21011466  51.97318268
H    10.85000038   1.63000000  50.72999954
H    12.30999947  -0.59999996  54.98000336
H     9.77999973  -0.88999999  55.61000061
H     7.55000019  -0.59999996  55.00000000
H     8.64000034   1.38000000  51.29000092
H    16.88999939   1.75999999  51.36000061
H     5.86000013   0.57999998  53.68000031
H     6.51000023   1.90999997  52.69000244
S    17.65999985  -0.17999999  55.58000183
C    20.30999947   0.50000000  55.07999802
C    18.97999954   0.63000000  54.72999954
C    18.54999924   1.24000001  53.50999832
C    19.51000023   1.71000004  52.63999939
C    20.88000107   1.65000010  52.98999786
C    21.84999847   2.02999997  52.01000214
C    23.19000053   1.81999993  52.25000000
C    23.59999847   1.28999996  53.50000000
C    22.69000053   0.96000004  54.48999786
C    21.30000114   1.05999994  54.22999954
C    17.11000061   1.05999994  53.31999969
C    16.46999931   0.35999998  54.38000107
C    15.15999985  -0.08000001  54.31000137
C    25.03999901   0.87000000  53.66000366
H    25.47655678   1.29939997  54.56174088
H    20.68000031  -0.12000000  55.89000320
H    19.22999954   2.00000000  51.63000107
H    21.54999924   2.22000003  50.97999954
H    23.85000038   1.88999999  51.38999939
H    22.90999985   0.28000000  55.31000137
H    14.67000008  -0.63000000  55.11000061
H    25.46999931   1.13999999  52.69000244
H    25.10000038  -0.23000000  53.68000031
