96

S    17.21999931   4.61000013  58.64999771
C    19.93999863   4.76000023  58.01000214
C    18.65999985   4.42000008  57.63999939
C    18.35000038   4.13000011  56.26999664
C    19.37000084   4.03999996  55.34000015
C    20.71000099   4.32000017  55.72000122
C    21.87000084   4.15999985  54.92000198
C    23.18000031   4.26999998  55.34000015
C    23.44000053   4.72000027  56.65999985
C    22.34999847   4.90999985  57.48000336
C    21.00000000   4.67000008  57.08000183
C    16.92000008   4.05999994  56.02000427
C    16.21000099   4.33999968  57.22000122
C    14.81999969   4.32999992  57.29000092
C    24.82999992   5.19000006  57.02000046
H    25.25549316   4.65813494  57.87098694
H    20.09000015   5.17000008  59.01000214
H    19.17000008   3.61999989  54.36000061
H    21.60000038   3.75999975  53.95000076
H    23.97999954   4.09000015  54.61999893
H    22.42000198   5.45000029  58.41999817
H    14.44000053   4.55999994  58.27999878
H    25.52999878   5.00000000  56.20999908
H    24.77000046   6.26999950  57.19999695
S    13.64999962   3.14000010  53.69999695
C    11.00000000   2.96999979  54.40999985
C    12.27000046   3.31999993  54.79999924
C    12.61999989   3.91999984  56.05999756
C    11.56999969   4.02999973  56.95000076
C    10.24000072   3.71000004  56.62000275
C     9.21000004   3.96000004  57.56000137
C     7.92000008   3.61000013  57.22999954
C     7.57000017   3.05999994  55.97000122
C     8.57999992   2.79999995  55.06000137
C     9.92000008   3.19000006  55.31000137
C    14.06000042   4.11999989  56.12999725
C    14.75000000   3.75000000  54.94999695
C    16.13999939   3.70000005  54.92000198
C     6.14000034   2.63999987  55.72000122
H     5.51312637   3.25975060  55.07888031
H    10.78999996   2.61000013  53.40999985
H    11.72999954   4.50000000  57.91999817
H     9.48999977   4.42000008  58.50999832
H     7.11999989   3.61999989  57.95999908
H     8.22000027   2.28999996  54.16999817
H    16.65999985   3.33999991  54.02999878
H     5.75999975   2.64999986  56.75000000
H     6.26999950   1.58999991  55.45000076
S    13.80000019   0.97000003  50.84000015
C    11.14999962   0.48000002  51.45999908
C    12.46999931   0.28999999  51.79999924
C    12.94999981  -0.16000001  53.08000183
C    11.97999954  -0.52999997  54.00000000
C    10.62000084  -0.25000000  53.75000000
C     9.56999969  -0.63000000  54.64000320
C     8.23000050  -0.63000000  54.31999969
C     7.82999992  -0.11000000  53.06999969
C     8.78000069   0.31000000  52.18000031
C    10.17000008   0.19000000  52.44999695
C    14.39000034  -0.07000000  53.20999908
C    14.96999931   0.64999998  52.12999725
C    16.28000069   1.13000000  52.12999725
C     6.37000036  -0.32999998  52.70000076
H     5.99209595   0.18337953  51.81584549
H    10.92000008   0.88999999  50.48999786
H    12.23999977  -0.85000002  55.00999832
H     9.89000034  -1.11000001  55.56000137
H     7.49000025  -1.13000000  54.93000031
H     8.57999992   0.75000000  51.19999695
H    16.63999939   1.67999995  51.26999664
H     6.24000025  -1.42000008  52.63000107
H     5.89999962   0.01000000  53.62999725
S    17.47999954  -0.25999999  55.70999908
C    20.10999870   0.14999999  55.12000275
C    18.81000137   0.43000001  54.75999832
C    18.47999954   1.08000004  53.53000259
C    19.44000053   1.76999998  52.81000137
C    20.79999924   1.50000000  53.11000061
C    21.81999969   1.97000003  52.23999786
C    23.12999916   1.59999990  52.38999939
C    23.44000053   0.85000002  53.55999756
C    22.49000168   0.41999999  54.45999908
C    21.11000061   0.64999998  54.23999786
C    17.05999947   0.88000000  53.27000046
C    16.47999954   0.07000000  54.27999878
C    15.18000031  -0.43000001  54.31000137
C    24.90999985   0.69999999  53.88999939
H    25.26475716   1.22504067  54.77689362
H    20.38000107  -0.41000003  56.00999832
H    19.34999847   2.20000005  51.81999969
H    21.54999924   2.59999990  51.39999771
H    23.88999939   2.11999989  51.81999969
H    22.81999969  -0.13000000  55.33000183
H    14.80000019  -1.04999995  55.10000229
H    25.39999962   0.99000001  52.95000076
H    25.17999840  -0.34000003  54.09999847
