96

S    17.15999985   5.01999950  58.87000275
C    19.80999947   5.17000008  58.27000046
C    18.55999947   4.81999969  57.80000305
C    18.18000031   4.53000021  56.45000076
C    19.22000122   4.46000004  55.54000092
C    20.53999901   4.74000025  55.96000290
C    21.56999969   4.76000023  54.98000336
C    22.88000107   4.94000006  55.34999847
C    23.19000053   5.26999998  56.70000076
C    22.20999908   5.40000010  57.64999771
C    20.86000061   5.09000015  57.31999969
C    16.72999954   4.55000019  56.31000137
C    16.03999901   4.90000010  57.50000000
C    14.67000008   5.12000036  57.55000305
C    24.63999939   5.51999998  57.02999878
H    25.07962799   4.94564629  57.84543991
H    20.00999832   5.36999989  59.31999969
H    18.94000053   4.25000000  54.51000214
H    21.34000015   4.46999979  53.95000076
H    23.67000198   4.80999994  54.61999893
H    22.43000031   5.75000000  58.66000366
H    14.23999977   5.18000031  58.54000092
H    25.22999954   5.35000038  56.11999893
H    24.71999931   6.58999968  57.23999786
S    13.31999969   3.98999977  54.00000000
C    10.71000004   3.84999990  54.78000259
C    11.97999954   4.26999998  55.13000107
C    12.38999939   4.78999996  56.38999939
C    11.44999981   4.82999992  57.39999771
C    10.11999989   4.51000023  57.04999924
C     9.11000061   4.67000008  58.04000092
C     7.77999973   4.51999998  57.71999741
C     7.42999983   3.94000006  56.46999741
C     8.34999943   3.75000000  55.45999908
C     9.70000076   4.05999994  55.75000000
C    13.85000038   4.85000038  56.44000244
C    14.50000000   4.41000032  55.26000214
C    15.88999939   4.33999968  55.20999908
C     6.01000023   3.45999980  56.31000137
H     5.52138758   3.98401928  55.48856354
H    10.59999943   3.42000008  53.79000092
H    11.80999947   5.00999975  58.40999985
H     9.44000053   5.00000000  59.02999878
H     7.02000046   4.78999996  58.44999695
H     8.19000053   3.37000012  54.45000076
H    16.28000069   3.96000004  54.27000046
H     5.40000010   3.52999973  57.22000122
H     6.09000015   2.39999986  56.03000259
S    17.87999916   5.79999971  52.70000076
C    20.50000000   5.66999960  51.97999954
C    19.20999908   5.32000017  51.63999939
C    18.82999992   4.85000038  50.34999847
C    19.80999947   4.71000004  49.38000107
C    21.14999962   5.00000000  49.72999954
C    22.15999985   4.88999987  48.73000336
C    23.48999977   5.00999975  49.08000183
C    23.85999870   5.40999985  50.38999939
C    22.92000008   5.51999998  51.38999939
C    21.54000092   5.33999968  51.06999969
C    17.38000107   4.86999989  50.20000076
C    16.77999878   5.38999987  51.37000275
C    15.42000008   5.69000006  51.36000061
C    25.31999969   5.75000000  50.59000015
H    25.73750877   5.19803810  51.43209457
H    20.69999886   6.32999992  52.81999969
H    19.54000092   4.32000017  48.40000153
H    21.80999947   4.69999981  47.72999573
H    24.23000145   4.80999994  48.31999969
H    23.16999817   5.80999947  52.39999771
H    14.85000038   6.05000019  52.21000290
H    25.97999954   5.51000023  49.73999786
H    25.40999985   6.83000040  50.76000214
S    14.11000061   4.19000006  47.93000031
C    11.54000092   3.86999989  48.93000031
C    12.79999924   4.42000008  49.09999847
C    13.15999985   5.10999966  50.30000305
C    12.23000050   5.35000038  51.29000092
C    10.88999939   4.94999981  51.05999756
C     9.81000042   5.22000027  51.93999863
C     8.50000000   4.88000011  51.68000031
C     8.11999989   4.41000032  50.40000153
C     9.17000008   3.88999987  49.68000031
C    10.54999924   4.17000008  49.89999771
C    14.60999966   5.27999973  50.30000305
C    15.26000023   4.81999969  49.13000107
C    16.63999939   4.65999985  49.02999878
C     6.67000008   4.05999994  50.15999603
H     6.27226591   4.56427002  49.27930450
H    11.26000023   3.49000001  47.95000076
H    12.55000019   5.82999992  52.22000122
H    10.00000000   5.86000013  52.78999710
H     7.81000042   5.05000019  52.50000000
H     8.85999966   3.23000002  48.87000275
H    17.01000023   4.21999979  48.11000061
H     6.12999964   4.53000021  50.98999786
H     6.61000013   2.96000004  50.12000275
