96

S    17.69000053   4.86000013  58.76999664
C    20.31999969   5.14999962  58.00000000
C    19.03000069   4.85000038  57.61000061
C    18.68999863   4.21000004  56.38000107
C    19.71999931   4.05999994  55.47000122
C    21.05999947   4.41000032  55.79000092
C    22.13999939   4.35999966  54.86999893
C    23.42000008   4.55000019  55.33000183
C    23.71999931   5.03000021  56.63000107
C    22.72999954   5.00999975  57.56999969
C    21.38999939   4.85000038  57.11999893
C    17.26000023   3.97000027  56.27999878
C    16.59000015   4.33999968  57.47000122
C    15.21000004   4.42000008  57.56999969
C    25.10999870   5.55000019  56.91999817
H    25.82854271   4.88836956  57.40377426
H    20.48000145   5.38000011  59.05000305
H    19.50000000   3.76999998  54.43999863
H    21.97000122   4.13000011  53.81999969
H    24.20000076   4.48000002  54.56999969
H    22.95999908   5.40000010  58.55999756
H    14.82999992   4.81999969  58.50999832
H    25.51000214   5.84000015  55.93999863
H    24.94999886   6.43000031  57.55000305
S    13.96999931   3.53999996  53.94000244
C    11.26999950   3.63000011  54.58000183
C    12.56000042   3.91000009  54.94999695
C    12.96000004   4.30000019  56.26999664
C    11.97000027   4.63000011  57.16999817
C    10.62000084   4.41000032  56.79999924
C     9.56999969   4.44000006  57.76000214
C     8.30999947   3.98999977  57.47000122
C     8.00000000   3.35999990  56.24000168
C     9.00000000   3.17999983  55.31000137
C    10.24000072   3.84999990  55.52999878
C    14.40999985   4.21000004  56.44000244
C    15.11000061   3.86000013  55.26000214
C    16.47999954   3.61000013  55.18000031
C     6.61000013   2.80999994  55.98999786
H     6.03859758   3.40282941  55.27574921
H    11.05999947   3.08999991  53.66000366
H    12.23000050   4.86000013  58.20000076
H     9.77000046   4.61999989  58.81999969
H     7.62000036   4.03999996  58.31999969
H     8.78999996   2.59999990  54.41999817
H    16.90999985   3.21000004  54.27000046
H     6.21999979   2.94999981  57.00000000
H     6.56000042   1.74000001  55.76000214
S    14.04999924   1.87999988  51.04999924
C    11.36999989   1.28999996  51.51000214
C    12.68000031   1.15999997  51.91999817
C    13.04999924   0.50000000  53.13999939
C    12.02000046  -0.02000000  53.89999771
C    10.65000057   0.17000002  53.60000229
C     9.61999989  -0.34999999  54.43999863
C     8.30999947  -0.23000000  54.02000046
C     7.99000025   0.56999999  52.88999939
C     8.97000027   1.04999995  52.04999924
C    10.34000015   0.79999995  52.35000229
C    14.50000000   0.52999997  53.30999756
C    15.15999985   1.19000006  52.23999786
C    16.54000092   1.30999994  52.15999985
C     6.54999971   1.00000000  52.68000031
H     6.05744171   0.47888756  51.85906982
H    11.05999947   1.75999999  50.59000015
H    12.28000069  -0.79999995  54.59999847
H     9.86999989  -0.79000002  55.40000153
H     7.50999975  -0.65999997  54.59999847
H     8.73999977   1.75999999  51.25999832
H    16.94000053   1.99000001  51.42000198
H     6.11000013   0.90999997  53.68000031
H     6.44999981   2.06999993  52.49000168
S    17.79000092  -0.25000000  55.58000183
C    20.45000076   0.44000000  55.08999634
C    19.11999893   0.56999999  54.73999786
C    18.68999863   1.21000004  53.54000092
C    19.61000061   1.71000004  52.63000107
C    20.96999931   1.59999990  52.98999786
C    22.00000000   2.01999998  52.11000061
C    23.34000015   1.72999990  52.29000092
C    23.74000168   0.96000004  53.40999985
C    22.79999924   0.61000001  54.34999847
C    21.42000008   0.90000004  54.15999985
C    17.34000015   0.79000002  53.18999863
C    16.67000008   0.17000002  54.27999878
C    15.29000092  -0.01000000  54.33000183
C    25.19000053   0.56999999  53.62999725
H    25.63016129   0.99596125  54.53161621
H    20.79999924  -0.07000000  55.97999954
H    19.45999908   1.93000007  51.58000183
H    21.64999962   2.43000007  51.17000198
H    24.05999947   1.97000003  51.52000046
H    22.96999931  -0.02000000  55.21999741
H    14.73000050  -0.50999999  55.12000275
H    25.86999893   0.87000000  52.81999969
H    25.28000069  -0.51999998  53.63999939
