96

S    17.38000107   4.88999987  58.87000275
C    20.10000038   4.85000038  58.27000046
C    18.82999992   4.44999981  57.95000076
C    18.46999931   3.86999989  56.69000244
C    19.50000000   3.81999993  55.76000214
C    20.84000015   4.17000008  56.04000092
C    21.88999939   4.15000010  55.07999802
C    23.16999817   4.59000015  55.34999847
C    23.44000053   5.07000017  56.65999985
C    22.47999954   5.15999985  57.63000107
C    21.17000198   4.69000006  57.34000397
C    17.05000114   3.70000005  56.43000031
C    16.38000107   4.28999996  57.52999878
C    15.00000000   4.46000004  57.60000229
C    24.87999916   5.32000017  57.05999756
H    25.27167892   4.60073471  57.77926254
H    20.29999924   5.25000000  59.26000214
H    19.40000153   3.33999991  54.79000092
H    21.73999977   3.84000015  54.05000305
H    23.92999840   4.50000000  54.58000183
H    22.70000076   5.46000004  58.64999771
H    14.63000107   4.96000004  58.48999786
H    25.61000061   5.44000053  56.25000000
H    24.79000092   6.28999996  57.56999969
S    13.73000050   3.32999992  54.02000046
C    11.07999992   3.10999990  54.81999969
C    12.35000038   3.54999995  55.11000061
C    12.75000000   4.11000013  56.37000275
C    11.72000027   4.41000032  57.23999786
C    10.36000061   4.11999989  56.95999908
C     9.28999996   4.36999989  57.85999680
C     7.99000025   4.02999973  57.56999969
C     7.69000006   3.38000011  56.33999634
C     8.71000004   3.00999999  55.48999786
C    10.05000019   3.42999983  55.73999786
C    14.19999981   4.07999992  56.52000046
C    14.85999966   3.65999985  55.34000015
C    16.22999954   3.38000011  55.34000015
C     6.28000021   2.94000006  56.00000000
H     5.72420692   3.58130002  55.31594849
H    10.85999966   2.50999975  53.94000244
H    11.92999935   4.77999973  58.23999786
H     9.56999969   4.84000015  58.80000305
H     7.14999962   4.32000017  58.18999863
H     8.61999989   2.51999998  54.52999878
H    16.69999886   3.07999992  54.40999985
H     5.75000000   2.86000013  56.95000076
H     6.42000008   1.93000007  55.59999847
S    14.04999924   1.39999998  50.86999893
C    11.35000038   0.90000004  51.39999771
C    12.65999985   0.79000002  51.79000092
C    13.07999992   0.20999999  53.02999878
C    12.13000107  -0.37000000  53.85000229
C    10.77999973  -0.34999999  53.43999863
C     9.73999977  -0.97000003  54.19000244
C     8.42000008  -0.79000002  53.86000061
C     8.01999950   0.20999999  52.94000244
C     8.98999977   0.69000000  52.09999847
C    10.36000061   0.32999998  52.25000000
C    14.52999973   0.25000000  53.20999908
C    15.18000031   0.94999999  52.15999985
C    16.48999977   1.38999999  52.15000153
C     6.58999968   0.71000004  52.85999680
H     6.12634277   0.30340850  51.96121597
H    11.03999996   1.51999998  50.56000137
H    12.28000069  -0.67000002  54.88999939
H    10.07999992  -1.43000007  55.11000061
H     7.65999985  -1.23000002  54.50000000
H     8.76000023   1.34000003  51.25999832
H    16.88999939   1.97000003  51.31999969
H     6.19000006   0.28999999  53.79000092
H     6.51999998   1.80999994  52.84999847
S    17.78000069  -0.28000000  55.56999969
C    20.46999931   0.24000001  54.92000198
C    19.12999916   0.48000002  54.71000290
C    18.68999863   1.08000004  53.47999954
C    19.63999939   1.46000004  52.55000305
C    21.02999878   1.43000007  52.84000015
C    22.01000023   1.89999998  51.91999817
C    23.31999969   1.94000006  52.36000061
C    23.75000000   1.28000009  53.54000092
C    22.82999992   0.63000000  54.33000183
C    21.45000076   0.79999995  54.06000137
C    17.25000000   1.00999999  53.27000046
C    16.64999962   0.27000001  54.31000137
C    15.29000092  -0.04000000  54.34000015
C    25.25000000   1.19999993  53.75000000
H    25.63418198   1.56283832  54.70333862
H    20.84000015  -0.39999998  55.72000122
H    19.34000015   1.89999998  51.60999680
H    21.84999847   2.09999990  50.86999893
H    24.09000015   2.36000013  51.72000122
H    23.18000031  -0.05000000  55.10000229
H    14.80999947  -0.39999998  55.25000000
H    25.69000053   1.72000003  52.88999939
H    25.65999985   0.19000000  53.68000031
