96

S    16.75000000   4.73000002  58.96999741
C    19.44000053   4.86000013  58.36000061
C    18.18000031   4.48999977  57.95000076
C    17.85000038   3.93000007  56.68000031
C    18.86999893   3.78999996  55.76000214
C    20.19000053   4.17000008  56.06999969
C    21.27000046   4.13999987  55.14999771
C    22.57999802   4.42999983  55.45000076
C    22.82999992   4.90000010  56.77000046
C    21.80999947   5.00999975  57.69000244
C    20.45999908   4.65000010  57.39999771
C    16.40999985   3.88999987  56.45000076
C    15.71000004   4.39000034  57.56999969
C    14.34000015   4.61000013  57.52999878
C    24.26000214   5.25000000  57.09999847
H    24.75742149   4.55361271  57.77507019
H    19.62000084   5.18000031  59.38000107
H    18.68000031   3.54999995  54.71000290
H    21.09999847   3.60000014  54.22000122
H    23.44000053   4.18000031  54.82999802
H    22.04000092   5.47999954  58.64999771
H    13.86000061   4.75000000  58.50000000
H    24.84000015   5.26000023  56.16000366
H    24.28999901   6.32000017  57.29999924
S    13.25000000   3.48000002  53.94000244
C    10.53999996   3.49000001  54.54999924
C    11.80999947   3.89999986  54.89999771
C    12.07999992   4.41000032  56.20999908
C    11.05999947   4.61999989  57.11999893
C     9.76000023   4.26000023  56.69000244
C     8.73999977   4.26999998  57.69000244
C     7.46999979   3.84999990  57.38999939
C     7.09000015   3.37000012  56.11000061
C     8.10000038   3.26999998  55.17000198
C     9.44000053   3.68999982  55.40999985
C    13.52000046   4.35999966  56.42000198
C    14.27000046   3.81999993  55.34999847
C    15.64000034   3.61000013  55.31000137
C     5.75000000   2.75000000  55.79999924
H     5.29489708   3.27621245  54.96090317
H    10.40999985   2.98000002  53.60000229
H    11.35000038   4.88000011  58.13999939
H     8.97999954   4.59000015  58.69999695
H     6.57000017   3.91999984  58.00000000
H     7.90999985   2.75999999  54.22999954
H    16.05999947   3.42999983  54.31999969
H     5.00000000   2.93000007  56.58000183
H     5.84000015   1.69000006  55.52999878
S    17.35000038   4.99000025  52.71999741
C    20.03000069   5.19000006  52.11999893
C    18.78000069   4.85000038  51.66999817
C    18.38999939   4.40000010  50.37000275
C    19.47000122   4.21999979  49.52000046
C    20.79000092   4.55999994  49.88999939
C    21.86000061   4.53999996  48.95000076
C    23.15999985   4.79999971  49.31000137
C    23.45999908   5.27999973  50.61000061
C    22.43999863   5.45000029  51.51000214
C    21.11000061   5.00000000  51.22000122
C    16.95999908   4.36999989  50.13999939
C    16.28000069   4.71000004  51.33999634
C    14.88999939   4.76000023  51.46999741
C    24.79999924   5.88000011  50.97000122
H    25.33343697   5.20431280  51.63857651
H    20.22999954   5.69000006  53.06000137
H    19.40000153   4.00000000  48.46000290
H    21.63000107   4.34999990  47.90000153
H    23.92999840   4.85000038  48.54999924
H    22.67000008   5.91000032  52.47000122
H    14.47000027   5.00999975  52.43999863
H    25.36000061   5.89999962  50.02999878
H    24.79000092   6.89000034  51.39999771
S    13.56999969   3.65000010  47.85999680
C    10.93000031   3.38000011  48.74000168
C    12.23000050   3.74000025  49.02000046
C    12.64999962   4.23999977  50.28999710
C    11.67000008   4.53000021  51.23000336
C    10.29999924   4.23999977  50.98999786
C     9.22999954   4.56999969  51.86000061
C     7.95000029   4.15999985  51.56000137
C     7.63000011   3.63000011  50.27999878
C     8.61999989   3.28000021  49.38999939
C     9.96000004   3.61000013  49.73999786
C    14.09000015   4.42000008  50.38000107
C    14.70999908   4.07999992  49.15000153
C    16.10000038   4.09999990  49.06999969
C     6.23000050   3.24000001  49.88999939
H     5.74430990   3.96139336  49.23288727
H    10.64000034   2.91000009  47.81000137
H    11.69999981   5.00000000  52.19999695
H     9.40999985   5.07000017  52.81000137
H     7.09000015   4.18000031  52.22000122
H     8.43000031   2.73000002  48.47000122
H    16.63999939   3.91000009  48.13999939
H     5.65000010   3.17000008  50.81999969
H     6.25999975   2.22000003  49.47999954
