96

S    16.92000008   4.69999981  58.75999832
C    19.64999962   4.88999987  58.15000153
C    18.38999939   4.44999981  57.80000305
C    18.02000046   4.05999994  56.47999573
C    18.98999977   4.00000000  55.48999786
C    20.31999969   4.41000032  55.77000046
C    21.35000038   4.01999998  54.86999893
C    22.63999939   4.36999989  55.19000244
C    22.95000076   5.07000017  56.38999939
C    21.97000122   5.19999981  57.35000229
C    20.61000061   4.86000013  57.11000061
C    16.57999992   4.05999994  56.27999878
C    15.82999992   4.55999994  57.36999893
C    14.47999954   4.88999987  57.38999939
C    24.33000183   5.61999989  56.63999939
H    24.89278793   5.04296589  57.37376022
H    19.78999901   5.25000000  59.16999817
H    18.77000046   3.55999994  54.52000046
H    21.15999985   3.42999983  53.97999573
H    23.42000008   4.13000011  54.47000122
H    22.27999878   5.51999998  58.34000015
H    14.00000000   5.27999973  58.27999878
H    24.89000130   5.78000021  55.70999908
H    24.27999878   6.61999989  57.09000015
S    13.43999958   3.51000023  53.77999878
C    10.76000023   3.58000016  54.40000153
C    12.03999996   3.86999989  54.80999756
C    12.35999966   4.42000008  56.09000397
C    11.32999992   4.53000021  57.01000214
C    10.01999950   4.18000031  56.60999680
C     8.97999954   4.23000002  57.57999802
C     7.68000031   4.03999996  57.18000031
C     7.31999969   3.65000010  55.86999893
C     8.30999947   3.52999973  54.93000031
C     9.65999985   3.82999992  55.26000214
C    13.81000042   4.51000023  56.22000122
C    14.51000023   3.96000004  55.12000275
C    15.88999939   3.77999997  55.08999634
C     5.92999983   3.14000010  55.54000092
H     5.52957249   3.60478210  54.63903809
H    10.59000015   3.17999983  53.40000153
H    11.40999985   4.76000023  58.06999969
H     9.27999973   4.48999977  58.59000397
H     6.89000034   3.78999996  57.88999939
H     8.19999981   3.16000009  53.90999603
H    16.43000031   3.49000001  54.20000076
H     5.28999996   3.19000006  56.44000244
H     5.98000002   2.06999993  55.33000183
S    17.73999977   5.42000008  52.69000244
C    20.40999985   5.40999985  52.00000000
C    19.12999916   5.01999950  51.66999817
C    18.77000046   4.46000004  50.40000153
C    19.78999901   4.21000004  49.50000000
C    21.12999916   4.46999979  49.86000061
C    22.19000053   4.39000034  48.90999603
C    23.51000023   4.65000010  49.15999985
C    23.85999870   5.19000006  50.43000031
C    22.82999992   5.45000029  51.30000305
C    21.45999908   5.15999985  51.07999802
C    17.31999969   4.42000008  50.20999908
C    16.67000008   4.88999987  51.38000107
C    15.27999973   4.96000004  51.33999634
C    25.27000046   5.66999960  50.72999954
H    25.67635727   5.29928875  51.67103577
H    20.69999886   5.98999977  52.87000275
H    19.52999878   3.73000002  48.55999756
H    21.83000183   4.13000011  47.91999817
H    24.30000114   4.61999989  48.40999985
H    23.09999847   6.01000023  52.19999695
H    14.73000050   5.28999996  52.22000122
H    25.88000107   5.38999987  49.86000061
H    25.29999924   6.76000023  50.73999786
S    14.23999977   3.63999987  47.72999573
C    11.51000023   3.77999997  48.29999924
C    12.79999924   4.09999990  48.66000366
C    13.12999916   4.63000011  49.94999695
C    12.13999939   4.79999971  50.89000320
C    10.80999947   4.46999979  50.56000137
C     9.72999954   4.61999989  51.47999573
C     8.46000004   4.15999985  51.19999695
C     8.10000038   3.63000011  49.93999863
C     9.13999939   3.53999996  49.03999710
C    10.47999954   3.98000002  49.23999786
C    14.56999969   4.61999989  50.18000031
C    15.29000092   4.07000017  49.09000015
C    16.67000008   3.88999987  49.09000015
C     6.69000053   3.17000008  49.62999725
H     6.19261265   3.92318678  49.01892090
H    11.26000023   3.09999990  47.49000168
H    12.41000080   5.19999981  51.86999893
H    10.05000019   4.98000002  52.44999695
H     7.69000006   4.26000023  51.95000076
H     9.04999924   3.00000000  48.09999847
H    17.28999901   3.45000005  48.30999756
H     6.11999989   3.03999996  50.56000137
H     6.76000023   2.20000005  49.13000107
