96

S    17.02999878   5.09000015  58.59000397
C    19.71999931   4.80999994  58.11000061
C    18.44000053   4.48999977  57.70000076
C    18.07999992   4.02999973  56.38999939
C    19.12999916   3.96000004  55.48999786
C    20.45000076   4.35999966  55.84000015
C    21.51000023   4.09999990  54.93000031
C    22.80999947   4.48999977  55.18000031
C    23.08000183   5.07999992  56.44000244
C    22.13999939   5.09000015  57.44999695
C    20.78000069   4.77999973  57.16999817
C    16.65999985   4.09999990  56.11000061
C    15.98999977   4.63000011  57.23999786
C    14.60999966   4.81999969  57.32999802
C    24.38999939   5.78999996  56.66999817
H    24.91504097   5.20110273  57.42208099
H    19.85999870   5.26999998  59.08000183
H    19.02000046   3.55999994  54.48999786
H    21.25999832   3.75000000  53.93000031
H    23.52999878   4.26000023  54.40999985
H    22.36000061   5.61999989  58.36999893
H    14.04000092   5.12000036  58.20000076
H    24.93999863   5.65000010  55.72999954
H    24.18999863   6.80999994  57.02999878
S    13.42000008   3.72000003  53.68999863
C    10.75000000   3.63000011  54.48999786
C    12.05999947   3.89999986  54.80999756
C    12.41000080   4.35999966  56.11999893
C    11.50000000   4.42999983  57.15999985
C    10.15999985   4.09999990  56.84999847
C     9.07999992   4.32000017  57.75000000
C     7.73999977   4.19000006  57.47000122
C     7.39000034   3.86999989  56.12999725
C     8.38000011   3.63000011  55.20999908
C     9.76000023   3.78999996  55.50000000
C    13.85000038   4.53000021  56.18999863
C    14.52999973   4.19000006  54.99000168
C    15.88999939   3.88999987  54.95999908
C     5.92999983   3.63000011  55.79999924
H     5.72991085   3.99444818  54.79240799
H    10.47000027   3.32999992  53.47999954
H    11.75000000   4.84000015  58.13999939
H     9.22000027   4.69999981  58.75000000
H     7.00000000   4.56999969  58.15999985
H     8.10000038   3.25000000  54.22999954
H    16.36000061   3.54999995  54.03999710
H     5.19999981   4.07000017  56.49000168
H     5.71000004   2.56000018  55.81999969
S    13.69999981   1.46000004  50.93000031
C    11.03999996   1.04999995  51.75000000
C    12.38000011   1.00999999  52.02999878
C    12.86999893   0.46000001  53.26000214
C    11.98999977  -0.09000000  54.18000031
C    10.60999966   0.12000000  53.94000244
C     9.72999954  -0.41999999  54.92000198
C     8.38000011  -0.38000000  54.68000031
C     7.82999992   0.19999999  53.50000000
C     8.67000008   0.81000000  52.58999634
C    10.07999992   0.75999999  52.76000214
C    14.32000065   0.52999997  53.37999725
C    14.88999939   1.10000002  52.19999695
C    16.26000023   1.25999999  52.06999969
C     6.38000011  -0.05000000  53.16999817
H     6.14378929   0.26494789  52.15357590
H    10.72999954   1.57000005  50.84999847
H    12.41000080  -0.63000000  55.01999664
H    10.17000008  -1.05999994  55.68000031
H     7.67000008  -0.90000004  55.31000137
H     8.27999973   1.38999999  51.76000214
H    16.69000053   1.51999998  51.10000229
H     6.28999996  -1.13999999  53.29999924
H     5.73000002   0.46999997  53.88000107
S    17.60000038   0.16000001  55.65999985
C    20.29999924   0.56999999  55.00999832
C    18.96999931   0.71000004  54.66999817
C    18.46999931   1.16999996  53.41999817
C    19.45000076   1.46000004  52.49000168
C    20.84000015   1.38000000  52.75000000
C    21.86000061   1.94999993  51.93000031
C    23.19999886   1.87000012  52.22000122
C    23.61000061   1.21000004  53.40999985
C    22.65999985   0.78000003  54.31999969
C    21.27000046   0.88000000  54.02999878
C    17.05000114   0.94999999  53.18000031
C    16.46000099   0.32999998  54.31000137
C    15.11000061  -0.02000000  54.38999939
C    25.06999969   0.92000002  53.68999863
H    25.49895477   1.41329861  54.56221008
H    20.50000000   0.28000000  56.04000092
H    19.09000015   1.72999990  51.50000000
H    21.57999992   2.49000001  51.03000259
H    23.90999985   2.11999989  51.44000244
H    23.02999878   0.31000000  55.21999741
H    14.59000015  -0.50000000  55.20999908
H    25.66999817   1.36000013  52.88000107
H    25.31999969  -0.14000000  53.68000031
