96

S    17.02999878   5.09000015  58.59000397
C    19.71999931   4.80999994  58.11000061
C    18.44000053   4.48999977  57.70000076
C    18.07999992   4.02999973  56.38999939
C    19.12999916   3.96000004  55.48999786
C    20.45000076   4.35999966  55.84000015
C    21.51000023   4.09999990  54.93000031
C    22.80999947   4.48999977  55.18000031
C    23.08000183   5.07999992  56.44000244
C    22.13999939   5.09000015  57.44999695
C    20.78000069   4.77999973  57.16999817
C    16.65999985   4.09999990  56.11000061
C    15.98999977   4.63000011  57.23999786
C    14.60999966   4.81999969  57.32999802
C    24.38999939   5.78999996  56.66999817
H    24.91504097   5.20110273  57.42208099
H    19.85999870   5.26999998  59.08000183
H    19.02000046   3.55999994  54.48999786
H    21.25999832   3.75000000  53.93000031
H    23.52999878   4.26000023  54.40999985
H    22.36000061   5.61999989  58.36999893
H    14.04000092   5.12000036  58.20000076
H    24.93999863   5.65000010  55.72999954
H    24.18999863   6.80999994  57.02999878
S    13.42000008   3.72000003  53.68999863
C    10.75000000   3.63000011  54.48999786
C    12.05999947   3.89999986  54.80999756
C    12.41000080   4.35999966  56.11999893
C    11.50000000   4.42999983  57.15999985
C    10.15999985   4.09999990  56.84999847
C     9.07999992   4.32000017  57.75000000
C     7.73999977   4.19000006  57.47000122
C     7.39000034   3.86999989  56.12999725
C     8.38000011   3.63000011  55.20999908
C     9.76000023   3.78999996  55.50000000
C    13.85000038   4.53000021  56.18999863
C    14.52999973   4.19000006  54.99000168
C    15.88999939   3.88999987  54.95999908
C     5.92999983   3.63000011  55.79999924
H     5.72991085   3.99444818  54.79240799
H    10.47000027   3.32999992  53.47999954
H    11.75000000   4.84000015  58.13999939
H     9.22000027   4.69999981  58.75000000
H     7.00000000   4.56999969  58.15999985
H     8.10000038   3.25000000  54.22999954
H    16.36000061   3.54999995  54.03999710
H     5.19999981   4.07000017  56.49000168
H     5.71000004   2.56000018  55.81999969
S    17.60000038   5.50000000  52.64999771
C    20.34000015   5.32999992  52.14000320
C    19.05999947   5.00999975  51.76000214
C    18.64999962   4.56999969  50.45999908
C    19.69000053   4.51999998  49.54999924
C    21.04000092   4.65999985  49.94999695
C    22.01000023   4.46999979  48.93000031
C    23.31999969   4.79999971  49.15999985
C    23.69999886   5.40999985  50.38999939
C    22.76000023   5.65999985  51.36000061
C    21.42000008   5.18000031  51.24000168
C    17.20999908   4.50000000  50.22999573
C    16.51000023   5.13000011  51.29000092
C    15.13000011   5.26000023  51.26999664
C    25.10000038   5.97000027  50.54999924
H    25.60947037   5.43222570  51.34958649
H    20.51000214   5.89999962  53.04999924
H    19.56999969   4.26000023  48.50999832
H    21.60000038   4.28000021  47.94000244
H    24.03000069   4.81999969  48.34000015
H    23.00000000   6.21000004  52.25999832
H    14.60999966   5.69999981  52.11999893
H    25.62000084   5.92000008  49.59000015
H    25.06999969   7.04999971  50.73999786
S    14.06000042   3.84000015  47.74000168
C    11.32999992   3.75000000  48.44999695
C    12.61999989   4.15999985  48.72000122
C    12.92000008   4.75000000  49.99000168
C    11.92000008   5.05000019  50.90000153
C    10.57999992   4.73000002  50.56999969
C     9.52000046   4.86000013  51.50000000
C     8.21000004   4.55999994  51.18000031
C     7.90000010   3.86000013  49.98000336
C     8.93000031   3.63999987  49.09000015
C    10.27999973   4.00999975  49.36000061
C    14.37000084   4.79999971  50.19000244
C    15.11000061   4.33999968  49.08000183
C    16.48999977   4.17000008  49.06999969
C     6.51999998   3.31999993  49.69999695
H     6.05614424   3.89803529  48.90073776
H    11.11999989   3.35999990  47.45999908
H    12.15000057   5.42999983  51.88999939
H     9.88000011   5.12000036  52.49000168
H     7.46000004   4.80999994  51.91999817
H     8.64999962   3.32999992  48.08000183
H    16.90000153   3.72000003  48.18000031
H     5.92999983   3.33999991  50.61999893
H     6.71000004   2.26999998  49.43000031
