96

S    17.19000053   5.19000006  59.01000214
C    19.95000076   5.19000006  58.36000061
C    18.63999939   4.94999981  58.02000046
C    18.27000046   4.46000004  56.72000122
C    19.25000000   4.17000008  55.79000092
C    20.61000061   4.44999981  56.05999756
C    21.64999962   4.25000000  55.11000061
C    22.95000076   4.56999969  55.43000031
C    23.25000000   5.17000008  56.68000031
C    22.27000046   5.32999992  57.63999939
C    20.93000031   4.92999983  57.36999893
C    16.82999992   4.25000000  56.59000015
C    16.07999992   4.69999981  57.70999908
C    14.73000050   5.00000000  57.61000061
C    24.60000038   5.68000031  57.11000061
H    25.07632446   5.06148958  57.87069702
H    20.22999954   5.69999981  59.27999878
H    18.96999931   3.70000005  54.85000229
H    21.31999969   3.86999989  54.15000153
H    23.68000031   4.28999996  54.66999817
H    22.60999870   5.80999947  58.54999924
H    14.23999977   5.61999989  58.34999847
H    25.13999939   5.84999990  56.17000198
H    24.40000153   6.69000053  57.49000168
S    13.73999977   3.51000023  54.08000183
C    10.97000027   3.50000000  54.64000320
C    12.25999928   3.79999995  55.01999664
C    12.55000019   4.40000010  56.29000092
C    11.46999931   4.61999989  57.12999725
C    10.11999989   4.32000017  56.81999969
C     9.06999969   4.51000023  57.76000214
C     7.75000000   4.34999990  57.37999725
C     7.50999975   3.74000025  56.11999893
C     8.52999973   3.44000006  55.25000000
C     9.89000034   3.76999998  55.51000214
C    13.97999954   4.50000000  56.52999878
C    14.75000000   3.97000027  55.45999908
C    16.13999939   3.91000009  55.43000031
C     6.09000015   3.40000010  55.70999908
H     5.60789728   4.08770466  55.01520538
H    10.67999935   2.89000010  53.79000092
H    11.71000004   5.07999992  58.08000183
H     9.35000038   4.94999981  58.70999908
H     6.97000027   4.59999990  58.09000015
H     8.27999973   3.07000017  54.26000214
H    16.63999939   3.91000009  54.45999908
H     5.52999973   3.40999985  56.65999985
H     6.09000015   2.42000008  55.24000168
S    17.86000061   5.88000011  52.88999939
C    20.56999969   5.82999992  52.30999756
C    19.29000092   5.51000023  51.90999985
C    18.96000099   4.90999985  50.65000153
C    20.00999832   4.67000008  49.78000259
C    21.32999802   5.05999994  50.06999969
C    22.37999916   4.90000010  49.12000275
C    23.68000031   5.13999987  49.48999786
C    23.95000076   5.72000027  50.76000214
C    22.95999908   5.96000004  51.68000031
C    21.60000038   5.65999985  51.36000061
C    17.52000046   4.86999989  50.47000122
C    16.77999878   5.31000042  51.59999847
C    15.39999962   5.26000023  51.69000244
C    25.36000061   6.10000038  51.13999939
H    25.74412346   5.44556665  51.92247391
H    20.85000038   6.28999996  53.25000000
H    19.77000046   3.98999977  48.95999908
H    22.11999893   4.48999977  48.13999939
H    24.47000122   4.99000025  48.75999832
H    23.09000015   6.30000019  52.70000076
H    14.92000008   5.59000015  52.61000061
H    26.02000046   5.92000008  50.27999878
H    25.39999962   7.17999983  51.32999802
S    14.25000000   4.11000013  48.08000183
C    11.57999992   3.84000015  48.75000000
C    12.84000015   4.21000004  49.15000153
C    13.12999916   4.77999973  50.44000244
C    12.05000019   5.03999996  51.25999832
C    10.72999954   4.69000006  50.90999985
C     9.67000008   4.74000025  51.86999893
C     8.43999958   4.26000023  51.45999908
C     8.17000008   3.74000025  50.15999603
C     9.21000004   3.58000016  49.27999878
C    10.48999977   4.07999992  49.62999725
C    14.56999969   4.86000013  50.63000107
C    15.29000092   4.50000000  49.45999908
C    16.68000031   4.42999983  49.43999863
C     6.78999996   3.19000006  49.87999725
H     6.30039263   3.89957619  49.21299744
H    11.38000011   3.61999989  47.70999908
H    12.20999908   5.19000006  52.32999802
H     9.92999935   5.05999994  52.87000275
H     7.67000008   4.34999990  52.22000122
H     9.06999969   3.09999990  48.30999756
H    17.05000114   3.88999987  48.56999969
H     6.19999981   2.99000001  50.77999878
H     6.93000031   2.17999983  49.47999954
