96

S    17.23999977   5.12000036  58.93000031
C    19.93000031   5.26999998  58.20999908
C    18.67000008   4.77999973  57.94000244
C    18.29000092   4.07000017  56.75000000
C    19.32999992   3.76999998  55.89000320
C    20.63999939   4.23000002  56.14999771
C    21.70000076   4.07000017  55.20999908
C    23.02000046   4.40000010  55.45999908
C    23.35000038   5.13999987  56.63000107
C    22.29999924   5.51000023  57.43999863
C    21.00000000   4.92999983  57.35000229
C    16.84000015   4.03999996  56.59000015
C    16.10999870   4.63999987  57.63999939
C    14.73999977   4.88000011  57.55000305
C    24.72999954   5.66999960  56.93000031
H    25.15730476   5.15723372  57.79173279
H    20.06999969   5.93999958  59.05000305
H    19.04000092   3.35000014  54.93000031
H    21.40999985   3.63999987  54.26000214
H    23.72999954   4.18000031  54.66999817
H    22.49000168   6.32999992  58.11999893
H    14.15999985   5.10999966  58.43999863
H    25.39999962   5.59999990  56.05999756
H    24.63999939   6.75000000  57.11000061
S    13.73000050   3.44000006  53.97999573
C    11.03000069   3.32999992  54.61999893
C    12.27000046   3.81999993  54.93000031
C    12.63000011   4.48000002  56.14999771
C    11.59000015   4.63999987  57.04999924
C    10.26000023   4.28000021  56.73999786
C     9.18000031   4.48999977  57.64999771
C     7.90000010   4.07999992  57.36999893
C     7.60999966   3.49000001  56.11999893
C     8.60999966   3.25999999  55.20000076
C     9.94999981   3.65000010  55.48999786
C    14.06999969   4.55999994  56.37000275
C    14.78999996   3.97000027  55.30000305
C    16.14999962   3.70000005  55.41999817
C     6.19000006   3.17000008  55.72000122
H     5.67382240   3.85588002  55.04826355
H    10.86999989   2.75000000  53.70999908
H    11.90999985   4.85000038  58.06999969
H     9.42000008   4.92999983  58.61999893
H     7.09999990   4.44000006  58.01000214
H     8.36000061   2.84000015  54.22999954
H    16.54000092   3.07000017  54.62999725
H     5.59000015   2.99000001  56.62000275
H     6.34000015   2.16000009  55.31999969
S    17.64000130   5.38000011  52.90000153
C    20.43999863   5.47999954  52.22999954
C    19.11999893   5.27999973  51.91999817
C    18.76000023   4.88000011  50.59000015
C    19.67000008   4.84000015  49.55999756
C    21.02000046   5.19000006  49.79999924
C    22.03000069   5.00999975  48.81999969
C    23.34000015   5.18000031  49.20000076
C    23.67000198   5.73999977  50.45999908
C    22.72000122   5.86999989  51.44000244
C    21.37000084   5.52999973  51.16000366
C    17.32999992   4.71000004  50.34999847
C    16.59000015   5.09000015  51.50000000
C    15.21000004   5.23999977  51.45000076
C    25.09000015   6.17999983  50.77000046
H    25.55365562   5.53801298  51.51898575
H    20.76000023   5.75000000  53.23999786
H    19.48999977   4.38000011  48.59000397
H    21.75000000   4.65000010  47.83000183
H    24.07999992   4.97000027  48.43000031
H    23.00000000   6.17999983  52.43999863
H    14.73999977   5.61999989  52.35000229
H    25.71000099   6.37000036  49.88999939
H    25.12000084   7.16000032  51.26999664
S    14.22999954   4.15999985  47.67000198
C    11.52999973   4.03999996  48.27000046
C    12.79000092   4.44999981  48.66000366
C    13.10999966   4.77999973  50.00999832
C    12.03999996   4.88000011  50.87999725
C    10.71000004   4.56999969  50.52000046
C     9.71000004   4.53999996  51.52999878
C     8.43999958   4.17000008  51.12999725
C     8.14000034   3.94000006  49.77000427
C     9.09000015   3.89999986  48.76999664
C    10.44000053   4.13999987  49.16999817
C    14.53999996   4.81999969  50.28999710
C    15.21999931   4.40000010  49.12000275
C    16.61000061   4.38000011  49.20000076
C     6.69000053   3.58999991  49.51000214
H     6.17515373   4.27646208  48.83784103
H    11.26000023   3.71000004  47.27000427
H    12.22000027   5.03000021  51.93999863
H     9.96999931   4.85000038  52.54000092
H     7.59999990   4.13999987  51.81999969
H     8.96000004   3.68999982  47.70999908
H    17.00000000   4.23999977  48.20000076
H     6.17000008   3.30000019  50.43000031
H     6.67000008   2.61999989  49.00000000
