96

S    17.28999901   5.12000036  58.72000122
C    20.00000000   5.38000011  58.06999969
C    18.75000000   4.92000008  57.72999573
C    18.45000076   4.33999968  56.45000076
C    19.47999954   4.11999989  55.54999924
C    20.79000092   4.53000021  55.87999725
C    21.87000084   4.44000006  54.94999695
C    23.12000084   4.92999983  55.24000168
C    23.35000038   5.36999989  56.56000137
C    22.39000130   5.45000029  57.54000092
C    21.04999924   5.17000008  57.14000320
C    17.02000046   4.21999979  56.23000336
C    16.26000023   4.67999983  57.34000397
C    14.89999962   4.94000006  57.29000092
C    24.73999977   5.84000015  56.95000076
H    25.24280930   5.18139219  57.65818024
H    20.26000023   5.84999990  59.01000214
H    19.19999886   3.65000010  54.61000061
H    21.67000008   4.03999996  53.96999741
H    23.97000122   4.78999996  54.58000183
H    22.52000046   5.75999975  58.57999802
H    14.37000084   5.22000027  58.18999863
H    25.29000092   6.10000038  56.04000092
H    24.60000038   6.76000023  57.51999664
S    13.88000011   3.51000023  53.76999664
C    11.11999989   3.47000003  54.25000000
C    12.38999939   3.77999997  54.68999863
C    12.75000000   4.33999968  55.96000290
C    11.68000031   4.44999981  56.83000183
C    10.34999943   4.13000011  56.45999908
C     9.30999947   4.25000000  57.43000031
C     8.01999950   3.84999990  57.15000153
C     7.69999981   3.35000014  55.86000061
C     8.69000053   3.24000001  54.91000366
C    10.03999901   3.63000011  55.14999771
C    14.18000031   4.51999998  56.17000198
C    14.94999981   4.15999985  55.02999878
C    16.31000137   3.86000013  55.06999969
C     6.30000019   2.82000017  55.66999817
H     5.68289232   3.47966671  55.05998230
H    10.90000057   2.98000002  53.30999756
H    11.79999924   4.63999987  57.88999939
H     9.55000019   4.51999998  58.44999695
H     7.42000008   3.78999996  58.04999924
H     8.53999996   2.82000017  53.92000198
H    16.77000046   3.51000023  54.15000153
H     5.75999975   2.73000002  56.63000107
H     6.44999981   1.84000003  55.20999908
S    17.71000099   5.46000004  52.68000031
C    20.39999962   5.63000011  52.01000214
C    19.12999916   5.25000000  51.63999939
C    18.75000000   4.78999996  50.34000015
C    19.75000000   4.63999987  49.38999939
C    21.07999992   4.99000025  49.69999695
C    22.13000107   4.88000011  48.73000336
C    23.43000031   5.17000008  49.06000137
C    23.72999954   5.56999969  50.38000107
C    22.77000046   5.69000006  51.36000061
C    21.40000153   5.47999954  51.00999832
C    17.29999924   4.88000011  50.18000031
C    16.55999947   5.12000036  51.36000061
C    15.18000031   5.22000027  51.39999771
C    25.17999840   5.93999958  50.63000107
H    25.68306351   5.25980139  51.31728363
H    20.65000153   5.92000008  53.02000046
H    19.61000061   4.15999985  48.43000031
H    21.91999817   4.61000013  47.70000076
H    24.14999962   5.01999950  48.26000214
H    23.09000015   6.06999969  52.31999969
H    14.67000008   5.51999998  52.30999756
H    25.65000153   5.89999962  49.64000320
H    25.26000023   6.94000006  51.07999802
S    14.11000061   3.98000002  47.77999878
C    11.39000034   3.89999986  48.36000061
C    12.67000008   4.11000013  48.81999969
C    13.01000023   4.59000015  50.12000275
C    11.95000076   4.67000008  51.02000427
C    10.64000034   4.46999979  50.54000092
C     9.61000061   4.69000006  51.50000000
C     8.30000019   4.38000011  51.25000000
C     7.96000004   3.96000004  49.93999863
C     8.89999962   3.77999997  48.95000076
C    10.26999950   4.01999998  49.22000122
C    14.42999935   4.86999989  50.27000046
C    15.15999985   4.56999969  49.09000015
C    16.54999924   4.56999969  49.03999710
C     6.50000000   3.76999998  49.62999725
H     6.10053253   4.46906805  48.89526749
H    11.16000080   3.47000003  47.37999725
H    12.02999973   5.05000019  52.02999878
H     9.89000034   5.05000019  52.49000168
H     7.63000011   4.46000004  52.11000061
H     8.57999992   3.53999996  47.94000244
H    17.10000038   4.18000031  48.20000076
H     5.88000011   3.77999997  50.54000092
H     6.51999998   2.75000000  49.22000122
