96

S    17.39999962   5.22000027  58.83999634
C    20.03000069   5.38999987  58.09999847
C    18.78000069   4.92999983  57.76000214
C    18.40999985   4.40000010  56.49000168
C    19.42000008   4.25000000  55.56000137
C    20.72999954   4.72000027  55.81999969
C    21.84000015   4.67999983  54.93000031
C    23.12000084   5.03000021  55.27000046
C    23.38999939   5.42000008  56.60999680
C    22.36999893   5.58000040  57.51999664
C    21.04999924   5.21000004  57.12999725
C    16.95999908   4.44999981  56.31000137
C    16.28999901   4.84000015  57.50000000
C    14.91000080   4.86999989  57.62000275
C    24.77999878   5.91000032  56.95999908
H    25.23366737   5.15152597  57.59796524
H    20.29000092   5.79999971  59.08000183
H    19.11000061   3.70000005  54.66999817
H    21.57999992   4.32999992  53.93000031
H    23.92000008   5.03999996  54.54000092
H    22.60000038   5.86999989  58.54000092
H    14.32000065   5.14999962  58.50000000
H    25.31999969   6.30999994  56.10000229
H    24.60000038   6.86999989  57.44999695
S    13.76999950   3.74000025  53.95999908
C    11.06999969   3.71000004  54.73999786
C    12.38000011   4.05999994  55.00999832
C    12.71999931   4.56999969  56.31000137
C    11.71000004   4.69000006  57.25000000
C    10.34000015   4.48000002  56.97999954
C     9.31999969   4.57999992  57.97000122
C     8.03999996   4.18000031  57.65999603
C     7.69000006   3.70000005  56.38000107
C     8.69000053   3.51999998  55.45000076
C    10.03999901   3.91999984  55.68999863
C    14.17000008   4.59000015  56.46999741
C    14.85000038   4.13000011  55.31000137
C    16.22999954   4.05000019  55.19000244
C     6.28000021   3.28000021  56.02000427
H     5.92295980   3.85126495  55.16310501
H    10.90000057   3.28000021  53.75999832
H    12.02999973   4.90000010  58.27000046
H     9.55999947   4.90999985  58.97999573
H     7.21000004   4.26999998  58.34999847
H     8.46000004   3.05000019  54.50000000
H    16.65999985   3.79999995  54.22000122
H     5.65000010   3.38000011  56.90999985
H     6.30000019   2.20000005  55.79999924
S    14.21000004   1.89999998  50.96000290
C    11.61000061   1.12000000  51.40999603
C    12.93000031   0.97999996  51.77000046
C    13.34000015   0.39000002  53.01000214
C    12.41000080  -0.06000000  53.93000031
C    11.05000019   0.17000002  53.62999725
C     9.98000050  -0.14999999  54.51000214
C     8.64999962   0.11000000  54.22999954
C     8.34999943   0.86000001  53.06999969
C     9.30999947   1.24000001  52.15999985
C    10.65000057   0.79999995  52.39999771
C    14.73999977   0.69999999  53.27000046
C    15.36999893   1.38999999  52.19999695
C    16.70999908   1.74000001  52.18999863
C     6.90000010   1.19000006  52.77000046
H     6.62202644   0.58415937  51.90756989
H    11.44000053   1.80999994  50.58000183
H    12.68000031  -0.64999998  54.79999924
H    10.15999985  -0.59000003  55.47999954
H     7.82000017  -0.25000000  54.84000397
H     9.18000031   1.72000003  51.19999695
H    17.26000023   2.16000009  51.35000229
H     6.30000019   0.73000002  53.55999756
H     6.69000053   2.26999998  52.72999573
S    18.04000092   0.19999999  55.52000046
C    20.72000122   0.81000000  55.06000137
C    19.42000008   0.86000001  54.61000061
C    18.97999954   1.48000002  53.39000320
C    19.96999931   2.01999998  52.58999634
C    21.32999802   2.01999998  52.98999786
C    22.39000130   2.25999999  52.06999969
C    23.71999931   2.05999994  52.37999725
C    24.05999947   1.70000005  53.70999908
C    23.08000183   1.28999996  54.58000183
C    21.70000076   1.39999998  54.22999954
C    17.54999924   1.33000004  53.22999954
C    16.84999847   0.71000004  54.29999924
C    15.50000000   0.39999998  54.40999985
C    25.52000046   1.39999998  54.00000000
H    25.86727333   1.63387752  55.00638199
H    20.95000076   0.25999999  55.96000290
H    19.78000069   2.34999990  51.56999969
H    22.09000015   2.33999991  51.03000259
H    24.43000031   2.16000009  51.56999969
H    23.28000069   0.65999997  55.44000244
H    15.00000000  -0.12000000  55.21999741
H    26.11000061   1.75999999  53.15000153
H    25.69000053   0.32000002  53.95999908
