96

S    17.05000114   4.92999983  58.81999969
C    19.77000046   5.22000027  58.13999939
C    18.48999977   4.86000013  57.77999878
C    18.15000153   4.41000032  56.45999908
C    19.19999886   4.28000021  55.56999969
C    20.51000214   4.74000025  55.86000061
C    21.61999893   4.67000008  54.97000122
C    22.88999939   5.07000017  55.31999969
C    23.13999939   5.51000023  56.65000153
C    22.15999985   5.44000053  57.60000229
C    20.81999969   5.19000006  57.18999863
C    16.72000122   4.23999977  56.30000305
C    15.97000027   4.59000015  57.44999695
C    14.59000015   4.73000002  57.44999695
C    24.60000038   5.78000021  56.93999863
H    25.02741432   5.08901358  57.66660309
H    19.97999954   5.65000010  59.10999680
H    19.07999992   3.79999995  54.59999847
H    21.51000023   4.05999994  54.08000183
H    23.71000099   4.81999969  54.65999985
H    22.30999947   5.51000023  58.68000031
H    14.01999950   5.10999966  58.29999924
H    25.20000076   5.68000031  56.02000427
H    24.71999931   6.80999994  57.29000092
S    13.50999928   3.61999989  53.85000229
C    10.76000023   3.68000007  54.52000046
C    12.05999947   4.05000019  54.78000259
C    12.43000031   4.56999969  56.05999756
C    11.49000072   4.75000000  57.04999924
C    10.17000008   4.30999994  56.81000137
C     9.06999969   4.53000021  57.70000076
C     7.76000023   4.26000023  57.37999725
C     7.42999983   3.60000014  56.17000198
C     8.43999958   3.37000012  55.26000214
C     9.77999973   3.76999998  55.54000092
C    13.86999989   4.48999977  56.27999878
C    14.63000107   4.02999973  55.17000198
C    16.01000023   3.89999986  55.13999939
C     6.02999973   3.25000000  55.72999954
H     5.57497406   3.87566042  54.96214676
H    10.47999954   3.21000004  53.57999802
H    11.72999954   5.14999962  58.04000092
H     9.44000053   4.88000011  58.66000366
H     7.02000046   4.51000023  58.13000107
H     8.25000000   2.96000004  54.27999878
H    16.56999969   3.72000003  54.22999954
H     5.33999968   3.19000006  56.58000183
H     6.09000015   2.19000006  55.45000076
S    17.79999924   5.68000031  52.77999878
C    20.58000183   5.73999977  52.16999817
C    19.27000046   5.52999973  51.79999924
C    18.93000031   5.17000008  50.45000076
C    19.93999863   5.13999987  49.51000214
C    21.30000114   5.36000013  49.86000061
C    22.42000198   5.09000015  49.02999878
C    23.71999931   5.23999977  49.43000031
C    24.00000000   5.75999975  50.72000122
C    22.98000145   5.91000032  51.62000275
C    21.63000107   5.68000031  51.22000122
C    17.51000023   4.92999983  50.27999878
C    16.72999954   5.25000000  51.43000031
C    15.34000015   5.28999996  51.43000031
C    25.43000031   6.07999992  51.07999802
H    25.87184906   5.43860531  51.84254837
H    20.82999992   6.02999973  53.18999863
H    19.69000053   4.75000000  48.53000259
H    22.20999908   4.67000008  48.04000092
H    24.56000137   5.00999975  48.76999664
H    23.19000053   6.24000025  52.63999939
H    14.86999989   5.65000010  52.34000397
H    26.05999947   5.98999977  50.19000244
H    25.46999931   7.14999962  51.33999634
S    14.32000065   4.30000019  47.75000000
C    11.56000042   4.19999981  48.30999756
C    12.84000015   4.50000000  48.72000122
C    13.19000053   4.90000010  50.05000305
C    12.13999939   5.17000008  50.90999985
C    10.80000019   4.88000011  50.54000092
C     9.76000023   5.00000000  51.51000214
C     8.47000027   4.61999989  51.24000168
C     8.14999962   4.07999992  49.97000122
C     9.13999939   3.98999977  49.02000046
C    10.50000000   4.36999989  49.22999954
C    14.63000107   4.96000004  50.27000046
C    15.39999962   4.67000008  49.12000275
C    16.79000092   4.57999992  49.13000107
C     6.72999954   3.65000010  49.68000031
H     6.12529659   4.32584476  49.07529449
H    11.50000000   3.74000025  47.32999802
H    12.35000038   5.38999987  51.95000076
H    10.06999969   5.28999996  52.50999832
H     7.72000027   4.59999990  52.02999878
H     8.96000004   3.50000000  48.06999969
H    17.35000038   4.28000021  48.25000000
H     6.28000021   3.19999981  50.56999969
H     6.93000031   2.79000020  49.02999878
