96

S    17.46000099   4.92000008  59.06000137
C    20.10999870   5.19000006  58.23999786
C    18.81999969   4.80999994  57.93000031
C    18.45000076   4.26000023  56.65999985
C    19.42000008   4.21999979  55.66999817
C    20.78000069   4.48000002  55.94999695
C    21.77999878   4.19999981  54.97000122
C    23.09999847   4.42999983  55.31000137
C    23.43000031   4.92000008  56.59999847
C    22.49000168   5.09999990  57.57999802
C    21.11000061   4.86999989  57.29000092
C    17.01000023   4.11999989  56.51000214
C    16.39000130   4.61000013  57.68000031
C    15.00000000   4.71000004  57.71999741
C    24.89000130   5.21000004  56.84000015
H    25.30762482   4.74282742  57.73187256
H    20.36999893   5.50000000  59.23999786
H    19.07999992   3.74000025  54.75999832
H    21.48999977   3.84999990  53.97999573
H    23.88999939   4.15000010  54.61999893
H    22.70000076   5.64000034  58.50000000
H    14.65000057   5.14999962  58.64999771
H    25.48999977   4.94000006  55.97000122
H    24.96999931   6.30000019  56.97000122
S    13.76000023   3.60000014  54.12000275
C    11.03000069   3.58999991  54.78000259
C    12.32999992   3.88000011  55.13000107
C    12.76999950   4.28999996  56.43000031
C    11.76000023   4.41000032  57.36999893
C    10.39999962   4.19000006  57.04999924
C     9.38000011   4.25000000  58.04000092
C     8.05999947   3.97000027  57.78999710
C     7.62000036   3.61000013  56.47999573
C     8.60000038   3.60000014  55.51000214
C    10.00000000   3.76999998  55.73999786
C    14.22000027   4.32000017  56.63000107
C    14.88999939   3.91000009  55.45000076
C    16.28000069   3.81000018  55.35999680
C     6.28000021   3.00000000  56.14999771
H     5.86855078   3.55332780  55.30582047
H    10.77000046   3.21000004  53.80000305
H    12.11999989   4.63999987  58.36999893
H     9.81000042   4.44999981  59.02000046
H     7.27999973   3.88999987  58.53000259
H     8.38999939   3.17999983  54.54000092
H    16.76000023   3.51999998  54.43000031
H     5.72000027   3.08999991  57.09000015
H     6.34999990   1.94999993  55.86000061
S    17.63000107   5.27999973  52.77999878
C    20.36999893   5.32000017  52.11999893
C    19.06999969   5.03999996  51.77000046
C    18.68000031   4.61999989  50.45999908
C    19.71999931   4.39000034  49.56999969
C    21.04000092   4.79999971  49.84000397
C    22.06000137   4.73000002  48.85000229
C    23.34000015   5.05999994  49.22999954
C    23.77000046   5.33999968  50.56000137
C    22.78000069   5.44000053  51.51000214
C    21.42000008   5.15999985  51.18000031
C    17.23999977   4.53999996  50.27000046
C    16.53000069   4.86000013  51.45000076
C    15.14999962   5.01999950  51.45999908
C    25.22999954   5.51999998  50.87999725
H    25.62098694   4.94418240  51.71884155
H    20.58000183   5.82000017  53.06999969
H    19.55999947   3.84999990  48.63999939
H    21.71999931   4.39000034  47.87000275
H    24.07999992   5.18000031  48.44999695
H    22.98999977   5.84999990  52.50000000
H    14.68000031   5.42000008  52.36000061
H    25.82999992   5.32000017  49.98000336
H    25.38000107   6.60000038  50.93000031
S    13.97999954   4.07999992  47.84000015
C    11.26999950   3.89999986  48.54999924
C    12.55000019   4.26000023  48.88000107
C    12.94999981   4.57999992  50.21999741
C    11.95000076   4.96000004  51.10000229
C    10.60999966   4.65999985  50.75000000
C     9.61000061   4.76999998  51.76000214
C     8.30999947   4.46999979  51.44000244
C     7.94000053   3.88000011  50.20000076
C     8.89999962   3.67000008  49.23999786
C    10.21999931   4.15000010  49.45999908
C    14.39000034   4.71000004  50.33000183
C    15.13000011   4.35999966  49.16999817
C    16.51000023   4.30000019  49.09999847
C     6.53999996   3.38999987  49.88999939
H     6.01926661   4.23173285  49.43346786
H    11.03000069   3.35000014  47.63000107
H    12.17000008   5.23000002  52.12999725
H     9.89999962   5.13999987  52.74000168
H     7.57999992   4.72000027  52.21000290
H     8.67999935   3.15000010  48.30999756
H    17.00000000   4.07000017  48.15000153
H     6.14000034   2.82000017  50.73999786
H     6.69000053   2.61000013  49.13000107
