96

S    16.95999908   4.90000010  58.75000000
C    19.70999908   5.03000021  58.01000214
C    18.38999939   4.76999998  57.70999908
C    18.04000092   4.28000021  56.40999603
C    19.01000023   4.05999994  55.45999908
C    20.38000107   4.28999996  55.70999908
C    21.45000076   4.07999992  54.79000092
C    22.73999977   4.40000010  55.13000107
C    23.05000114   4.92000008  56.42000198
C    22.06000137   5.03999996  57.36000061
C    20.69000053   4.86999989  57.00000000
C    16.59000015   4.19000006  56.29000092
C    15.82999992   4.65999985  57.39999771
C    14.44000053   4.67000008  57.48000336
C    24.48999786   5.18000031  56.79000092
H    24.80290985   4.75330496  57.74295425
H    19.96000099   5.38999987  59.01000214
H    18.78000069   3.58999991  54.51000214
H    21.22999954   3.84000015  53.75000000
H    23.57000160   4.00999975  54.54999924
H    22.15999985   5.32999992  58.40000153
H    14.09999943   4.74000025  58.50999832
H    25.20999908   4.84000015  56.04000092
H    24.56000137   6.26999950  56.88999939
S    13.40000057   3.47000003  53.92000198
C    10.65000057   3.48000002  54.43000031
C    11.92000008   3.81000018  54.84000397
C    12.25000000   4.36999989  56.11999893
C    11.23999977   4.59999990  57.02999878
C     9.92999935   4.19000006  56.68000031
C     8.82999992   4.30000019  57.57999802
C     7.55000019   3.95000005  57.22000122
C     7.26999998   3.40000010  55.93999863
C     8.28999996   3.30000019  55.01999664
C     9.61999989   3.65000010  55.38000107
C    13.68999958   4.42000008  56.32999802
C    14.47000027   3.98000002  55.22999573
C    15.84000015   3.73000002  55.20999908
C     5.84999990   3.09999990  55.52000046
H     5.36663914   3.74685073  54.78784943
H    10.52000046   2.87999988  53.53000259
H    11.46000004   5.03000021  58.01000214
H     9.02999973   4.85000038  58.48999786
H     6.71000004   4.19999981  57.84999847
H     8.09000015   3.02999997  53.99000168
H    16.32999992   3.30000019  54.33000183
H     5.23000002   3.22000003  56.40999603
H     5.82999992   2.07999992  55.12000275
S    17.34000015   5.23999977  52.68000031
C    20.07999802   5.07999992  52.08000183
C    18.77000046   4.86000013  51.72000122
C    18.38999939   4.46000004  50.40000153
C    19.31999969   4.34999990  49.38000107
C    20.65999985   4.63000011  49.72999954
C    21.70000076   4.65000010  48.75000000
C    23.00000000   4.82999992  49.13000107
C    23.36999893   5.35000038  50.40000153
C    22.37999916   5.45000029  51.36000061
C    21.04999924   5.05000019  51.04999924
C    16.95000076   4.42999983  50.14999771
C    16.27000046   4.75000000  51.35000229
C    14.88999939   4.94000006  51.35000229
C    24.76000023   5.84000015  50.76000214
H    25.33004379   5.14169598  51.37279892
H    20.34000015   5.51000023  53.04999924
H    19.03000069   4.21000004  48.34000015
H    21.51000023   4.44000006  47.70000076
H    23.77000046   4.65000010  48.37999725
H    22.62000084   5.69999981  52.38999939
H    14.40000057   5.13999987  52.29999924
H    25.32999992   5.98999977  49.82999802
H    24.71999931   6.80999994  51.26999664
S    13.80000019   3.75000000  47.71999741
C    11.07999992   3.65000010  48.41999817
C    12.36999989   3.97000027  48.75999832
C    12.69999981   4.50000000  50.04000092
C    11.68000031   4.76999998  50.93999863
C    10.36000061   4.32000017  50.70000076
C     9.28999996   4.53999996  51.60999680
C     8.01000023   4.19000006  51.25999832
C     7.71000004   3.51999998  50.04000092
C     8.71000004   3.42000008  49.10999680
C    10.05000019   3.81999993  49.38000107
C    14.14999962   4.59000015  50.21999741
C    14.86999989   4.25000000  49.05000305
C    16.26000023   4.19000006  48.95999908
C     6.32000017   3.05000019  49.68999863
H     5.84386778   3.76775146  49.02199173
H    10.81999969   3.21000004  47.45999908
H    11.92999935   5.13000011  51.93000031
H     9.57999992   4.99000025  52.56000137
H     7.22000027   4.34999990  52.00000000
H     8.59000015   3.02999997  48.09999847
H    16.76000023   3.75000000  48.11000061
H     5.78999996   2.89999986  50.65000153
H     6.48999977   2.04999995  49.27999878
