96

S    17.61999893   4.97000027  58.92000198
C    20.27000046   4.92000008  58.15000153
C    18.96000099   4.67000008  57.80000305
C    18.54999924   4.28000021  56.47999573
C    19.55999947   4.09000015  55.54999924
C    20.90999985   4.23000002  55.94999695
C    21.97999954   4.11999989  55.01999664
C    23.28000069   4.53999996  55.19000244
C    23.61999893   5.05000019  56.46999741
C    22.65999985   5.13000011  57.45999908
C    21.34000015   4.65000010  57.25999832
C    17.10000038   4.17000008  56.44000244
C    16.45000076   4.57999992  57.63000107
C    15.11000061   4.92999983  57.65999603
C    25.03000069   5.44000053  56.86000061
H    25.35729980   4.91347313  57.75651932
H    20.48000145   5.29999971  59.15000153
H    19.40000153   3.88999987  54.48999786
H    21.78999901   3.68999982  54.03999710
H    24.04999924   4.32999992  54.47000122
H    23.00000000   5.72000027  58.30999756
H    14.72000027   5.44000053  58.53000259
H    25.72000122   5.18000031  56.04999924
H    25.03000069   6.51999998  57.08000183
S    13.78000069   3.61999989  54.18000031
C    11.13000011   4.17000008  54.68000031
C    12.43000031   4.30999994  55.10000229
C    12.86999893   4.69999981  56.40999603
C    11.82000065   4.92000008  57.28000259
C    10.46000004   4.77999973  56.90000153
C     9.43000031   4.85000038  57.88000107
C     8.14999962   4.42000008  57.61000061
C     7.76999998   4.00000000  56.31000137
C     8.71000004   4.01999998  55.31999969
C    10.06000042   4.41000032  55.56999969
C    14.30999947   4.61000013  56.55000305
C    14.96999931   4.07000017  55.41999817
C    16.32999992   3.78999996  55.34000015
C     6.44000006   3.35000014  56.00999832
H     5.87147188   4.02512741  55.37040710
H    11.03999996   3.51999998  53.81000137
H    12.05999947   5.19000006  58.30999756
H     9.71000004   5.14999962  58.88999939
H     7.40999985   4.42000008  58.40000153
H     8.47000027   3.68000007  54.31000137
H    16.79000092   3.40999985  54.43000031
H     5.91000032   3.08999991  56.93999863
H     6.67000008   2.39999986  55.51000214
S    13.94999981   1.66999996  50.87999725
C    11.28999901   1.57000005  51.72000122
C    12.61000061   1.28000009  51.97999954
C    13.09000015   0.59000003  53.13999939
C    12.15000057   0.22000000  54.09000015
C    10.77999973   0.41000003  53.81999969
C     9.72000027  -0.05000000  54.65999985
C     8.38000011   0.14999999  54.43000031
C     8.00000000   1.05999994  53.40999985
C     8.96000004   1.49000001  52.51999664
C    10.34000015   1.23000002  52.71999741
C    14.52999973   0.41999999  53.20000076
C    15.10000038   1.13000000  52.11000061
C    16.45000076   1.48000002  52.05999756
C     6.53999996   1.34000003  53.11000061
H     6.18385172   0.70605588  52.29798126
H    11.00999928   2.04999995  50.79000092
H    12.42000008  -0.22000000  55.05000305
H    10.08999920  -0.38000000  55.63000107
H     7.65999985  -0.38000000  55.05000305
H     8.63000011   1.99000001  51.60999680
H    16.84999847   1.98000002  51.18000031
H     5.93999958   1.19000006  54.02000046
H     6.54999971   2.39999986  52.85999680
S    17.73999977   0.02000000  55.54999924
C    20.39999962   0.39000002  54.89999771
C    19.09000015   0.48000002  54.50000000
C    18.70000076   1.11000001  53.27000046
C    19.67000008   1.66999996  52.45999908
C    21.04000092   1.65000010  52.83000183
C    22.06999969   2.07999992  51.95000076
C    23.38999939   1.87999988  52.25000000
C    23.71000099   1.21000004  53.46000290
C    22.76000023   0.82000005  54.38000107
C    21.38000107   1.02999997  54.09000015
C    17.25000000   1.04999995  53.11999893
C    16.62999916   0.39999998  54.20999908
C    15.27999973   0.08000001  54.34000015
C    25.15000153   0.88000000  53.75999832
H    25.47052574   1.32873762  54.70021057
H    20.69000053  -0.09000000  55.83000183
H    19.51000023   2.26999998  51.56999969
H    21.91999817   2.52999997  50.97000122
H    24.10000038   2.14000010  51.46999741
H    23.02999878   0.19999999  55.22999573
H    14.85000038  -0.11000000  55.31999969
H    25.82999992   1.19999993  52.95999908
H    25.28000069  -0.20999999  53.73000336
