96

S    17.14999962   4.63999987  58.86000061
C    19.89999962   4.75000000  58.20999908
C    18.59000015   4.55999994  57.83000183
C    18.22999954   4.30999994  56.46999741
C    19.23999977   4.07999992  55.56000137
C    20.59999847   4.23999977  55.93000031
C    21.65999985   3.93000007  55.01999664
C    22.95000076   4.21000004  55.40000153
C    23.31000137   4.61000013  56.70999908
C    22.32000160   4.72000027  57.65999603
C    20.95999908   4.61999989  57.27000427
C    16.79000092   4.32999992  56.24000168
C    16.09000015   4.65000010  57.43999863
C    14.70999908   4.80999994  57.43999863
C    24.75000000   4.92000008  57.05999756
H    25.17030907   4.35721445  57.89349365
H    20.03999901   5.10999966  59.22000122
H    18.93000031   3.74000025  54.58000183
H    21.47000122   3.48000002  54.05000305
H    23.71000099   3.93000007  54.66999817
H    22.65999985   4.88000011  58.68000031
H    14.18000031   4.90999985  58.37999725
H    25.35000038   4.86000013  56.13999939
H    24.80999947   5.98999977  57.31999969
S    13.53999996   3.71000004  53.79000092
C    10.85999966   3.86000013  54.45999908
C    12.15000057   4.21999979  54.78000259
C    12.53999901   4.59000015  56.11000061
C    11.51000023   4.74000025  57.02000046
C    10.14999962   4.51999998  56.69000244
C     9.03999996   4.71000004  57.55000305
C     7.81000042   4.13999987  57.32999802
C     7.44999981   3.65999985  56.04000092
C     8.47000027   3.61000013  55.12000275
C     9.81000042   3.96000004  55.40000153
C    13.97999954   4.61999989  56.25999832
C    14.65999985   4.18000031  55.08999634
C    16.03999901   4.07999992  55.07999802
C     6.00000000   3.35999990  55.70999908
H     5.55863047   3.95798469  54.91268539
H    10.64000034   3.45999980  53.47000122
H    11.90000057   5.05999994  57.98999786
H     9.26000023   5.23999977  58.47000122
H     7.04999971   4.23000002  58.09999847
H     8.28999996   3.35000014  54.08000183
H    16.50000000   3.63999987  54.20000076
H     5.51000023   3.60000014  56.65999985
H     5.75999975   2.30999994  55.50000000
S    14.04000092   1.71000004  51.05999756
C    11.38000011   1.19000006  51.59999847
C    12.69000053   1.05999994  52.00000000
C    13.09000015   0.43000001  53.22999954
C    12.10000038   0.08000001  54.12000275
C    10.72999954   0.24000001  53.77999878
C     9.64999962  -0.13000000  54.62999725
C     8.32999992   0.12000000  54.31999969
C     7.99000025   0.68000007  53.06000137
C     9.00000000   1.00000000  52.18000031
C    10.36000061   0.78000003  52.50000000
C    14.53999996   0.48999998  53.40000153
C    15.18000031   1.08000004  52.28000259
C    16.53000069   1.36999989  52.22999954
C     6.54999971   1.03999996  52.77999878
H     6.10807371   0.54105103  51.91753006
H    11.13999939   1.75999999  50.70999908
H    12.36999989  -0.19000000  55.13999939
H     9.96999931  -0.55000001  55.58000183
H     7.62000036  -0.24000001  55.05000305
H     8.69999981   1.47000003  51.24000168
H    16.95000076   1.94999993  51.39999771
H     5.89999962   0.71999997  53.61000061
H     6.52999973   2.13000011  52.65999603
S    17.85000038   0.01000000  55.68999863
C    20.50000000   0.14999999  54.79999924
C    19.19000053   0.57999998  54.66999817
C    18.77000046   1.21000004  53.46000290
C    19.65999985   1.72000003  52.54000092
C    21.04000092   1.41000009  52.69000244
C    22.07999992   1.98000002  51.90999985
C    23.40999985   1.70000005  52.12999725
C    23.80000114   0.88000000  53.22000122
C    22.79999924   0.35999998  54.01000214
C    21.42000008   0.64999998  53.85000229
C    17.31999969   1.04999995  53.34000015
C    16.65999985   0.54000002  54.47999954
C    15.31000042   0.24000001  54.54000092
C    25.22999954   0.51999998  53.56999969
H    25.61562920   0.94133627  54.49836731
H    20.81000137  -0.57999998  55.54000092
H    19.38999939   2.20000005  51.59999847
H    21.76000214   2.63000011  51.10000229
H    24.23000145   1.97000003  51.45999908
H    23.01000214  -0.37000000  54.78000259
H    14.92000008  -0.12000000  55.48999786
H    26.02000046   0.76999998  52.84999847
H    25.29000092  -0.57999998  53.60000229
