96

S    17.12000084   5.28999996  58.77999878
C    19.82999992   5.19999981  58.16999817
C    18.53000069   5.00999975  57.75000000
C    18.15999985   4.39000034  56.51000214
C    19.11999893   4.15999985  55.54000092
C    20.45999908   4.41000032  55.91999817
C    21.51000023   4.30000019  54.97000122
C    22.81999969   4.51000023  55.30000305
C    23.22000122   4.84000015  56.62000275
C    22.21999931   4.98000002  57.56000137
C    20.84000015   4.86000013  57.23999786
C    16.72000122   4.42000008  56.25999832
C    16.04999924   4.85000038  57.43000031
C    14.67000008   5.05999994  57.41000366
C    24.67000008   5.07999992  56.98999786
H    25.06799507   4.58961344  57.87837982
H    20.09000015   5.44000053  59.20000076
H    18.82999992   3.81000018  54.55999756
H    21.17000198   4.11999989  53.95000076
H    23.61999893   4.32000017  54.59000015
H    22.34999847   5.19999981  58.61000061
H    14.18000031   5.26999998  58.36000061
H    25.25000000   4.67999983  56.13999939
H    24.77000046   6.17000008  57.00000000
S    13.53999996   3.47000003  53.86000061
C    10.88999939   3.73000002  54.52000046
C    12.18999958   4.00999975  54.87999725
C    12.51000023   4.51999998  56.17000198
C    11.50000000   4.76000023  57.08000183
C    10.14000034   4.48999977  56.77999878
C     9.11999989   4.67000008  57.76000214
C     7.81000042   4.46000004  57.39999771
C     7.46000004   3.94000006  56.11999893
C     8.48999977   3.74000025  55.22999573
C     9.88000011   3.93000007  55.48999786
C    13.96000004   4.63000011  56.29000092
C    14.60000038   4.07000017  55.14999771
C    15.98999977   4.11999989  55.11000061
C     6.01000023   3.58999991  55.86000061
H     5.62832308   4.04942560  54.94821548
H    10.55999947   3.40000010  53.53000259
H    11.72000027   5.17000008  58.06000137
H     9.46000004   5.09000015  58.69999695
H     7.02000046   4.57999992  58.13000107
H     8.10000038   3.17999983  54.38000107
H    16.52000046   3.58000016  54.33000183
H     5.46000004   3.96000004  56.72999954
H     5.82000017   2.51999998  55.72999954
S    17.92000008   5.32999992  52.68000031
C    20.58000183   5.64000034  51.88000107
C    19.30999947   5.19999981  51.59000015
C    18.95000076   4.65999985  50.31000137
C    19.97999954   4.41000032  49.41999817
C    21.30000114   4.81999969  49.69999695
C    22.34999847   4.78999996  48.74000168
C    23.64999962   5.13000011  49.05000305
C    24.01000023   5.56999969  50.34999847
C    22.98000145   5.82999992  51.23000336
C    21.64999962   5.38999987  50.97999954
C    17.50000000   4.51000023  50.20999908
C    16.79999924   4.99000025  51.35000229
C    15.42000008   5.19999981  51.39999771
C    25.42000008   5.98999977  50.65999985
H    25.79125214   5.26891565  51.38822556
H    20.76000023   6.17999983  52.80000305
H    19.78000069   4.01999998  48.41999817
H    22.11000061   4.51000023  47.71999741
H    24.40999985   4.94999981  48.29999924
H    23.19999886   6.30999994  52.18000031
H    14.91000080   5.59999990  52.27000427
H    26.09999847   6.17999983  49.80999756
H    25.48000145   7.00999975  51.06999969
S    14.28999996   3.58000016  47.90999985
C    11.54999924   3.84000015  48.54999924
C    12.86999893   4.15999985  48.80000305
C    13.28999996   4.76999998  50.01999664
C    12.28000069   4.94999981  50.93999863
C    10.88999939   4.82999992  50.70999908
C     9.86999989   5.09999990  51.65999985
C     8.53999996   4.96000004  51.33999634
C     8.14999962   4.42000008  50.07999802
C     9.13999939   4.03999996  49.20000076
C    10.52999973   4.23999977  49.43999863
C    14.73000050   4.81999969  50.24000168
C    15.39000034   4.15000010  49.18000031
C    16.77000046   3.98999977  49.13999939
C     6.76999998   3.86000013  49.81999969
H     6.24361897   4.47174025  49.08733368
H    11.31999969   3.51000023  47.54000092
H    12.56999969   5.19000006  51.95999908
H    10.19000053   5.32000017  52.68000031
H     7.73000002   5.13000011  52.02999878
H     8.97999954   3.45999980  48.29999924
H    17.15999985   3.50000000  48.25000000
H     6.19999981   3.93000007  50.76000214
H     6.89000034   2.82000017  49.50000000
