96

S    16.97999954   4.97000027  58.83999634
C    19.70000076   5.12000036  58.15999985
C    18.40999985   4.79999971  57.80000305
C    18.06999969   4.33999968  56.49000168
C    19.11000061   4.33999968  55.56999969
C    20.42000008   4.75000000  55.87999725
C    21.50000000   4.61000013  54.94999695
C    22.78000069   4.67999983  55.45000076
C    23.12999916   4.98000002  56.79999924
C    22.11000061   5.29999971  57.65999603
C    20.76000023   5.14999962  57.22000122
C    16.63999939   4.21999979  56.25999832
C    15.95999908   4.50000000  57.47000122
C    14.56999969   4.51999998  57.56999969
C    24.57999992   5.25000000  57.09000015
H    25.13253403   4.70455074  57.85504532
H    19.98999977   5.40999985  59.15999985
H    18.81999969   3.88000011  54.62999725
H    21.14999962   4.21999979  54.00000000
H    23.59999847   4.51999998  54.75999832
H    22.29999924   5.45000029  58.72000122
H    14.19000053   4.86000013  58.53000259
H    25.10999870   5.14999962  56.12999725
H    24.63999939   6.32000017  57.35000229
S    13.38999939   3.53999996  53.88000107
C    10.65999985   3.65999985  54.54000092
C    11.97000027   3.84000015  54.91000366
C    12.34000015   4.19999981  56.24000168
C    11.30000019   4.46000004  57.11999893
C     9.96000004   4.13000011  56.79999924
C     8.93999958   4.23000002  57.77999878
C     7.63999987   3.88000011  57.48000336
C     7.30999994   3.38999987  56.18999863
C     8.23999977   3.38000011  55.18000031
C     9.59000015   3.74000025  55.47000122
C    13.78000069   4.23000002  56.45000076
C    14.45000076   3.91000009  55.25000000
C    15.84000015   3.96000004  55.13999939
C     5.88999987   2.91000009  55.94999695
H     5.47031641   3.39370275  55.06795502
H    10.36000061   3.28999996  53.55999756
H    11.54000092   4.74000025  58.13999939
H     9.18000031   4.61000013  58.76999664
H     6.85999966   3.81999993  58.22999954
H     7.86000013   3.01999998  54.22000122
H    16.31000137   3.75000000  54.19000244
H     5.26000023   3.21000004  56.79000092
H     5.96000004   1.81999993  55.83000183
S    14.46000004   1.51999998  50.84000015
C    11.76000023   1.13999999  51.33999634
C    13.04999924   0.87000000  51.72000122
C    13.40000057   0.39999998  53.02999878
C    12.36999989   0.04000000  53.87000275
C    11.03000069   0.14000000  53.43000031
C    10.01999950  -0.29999998  54.33000183
C     8.69000053  -0.17000002  54.00000000
C     8.36999989   0.46999997  52.77000046
C     9.30000019   0.97000003  51.90000153
C    10.69000053   0.82000005  52.21000290
C    14.81999969   0.54000002  53.29000092
C    15.51000023   1.19999993  52.23999786
C    16.79000092   1.72000003  52.35000229
C     6.94000006   0.94999999  52.63000107
H     6.42043400   0.35926074  51.87556076
H    11.59999943   1.54999995  50.34000015
H    12.61000061  -0.43000001  54.81999969
H    10.31999969  -0.41999999  55.37000275
H     7.92999983  -0.34000003  54.75000000
H     9.03999996   1.36999989  50.91999817
H    17.23999977   2.20000005  51.47999573
H     6.51000023   0.82999998  53.63999939
H     6.93000031   2.01999998  52.41000366
S    18.09000015  -0.03000000  55.63999939
C    20.81000137   0.54000002  55.06000137
C    19.47999954   0.57999998  54.72000122
C    19.01000023   1.26999998  53.54999924
C    19.95000076   1.79000008  52.68000031
C    21.34000015   1.75999999  52.95999908
C    22.36000061   2.21000004  52.06999969
C    23.68999863   1.95999992  52.29000092
C    24.11000061   1.41000009  53.53000259
C    23.15000153   1.08000004  54.45999908
C    21.75000000   1.15999997  54.20000076
C    17.56000137   1.24000001  53.40999985
C    16.90000153   0.52999997  54.45000076
C    15.57000065   0.13000000  54.40999985
C    25.52999878   0.97999996  53.79000092
H    25.90657806   1.33526218  54.74920654
H    21.07999992  -0.04000000  55.93999863
H    19.70000076   2.26999998  51.73999786
H    21.98999786   2.53999996  51.10000229
H    24.43000031   2.10999990  51.51000214
H    23.57000160   0.38000000  55.18000031
H    15.19999981  -0.48000002  55.21999741
H    26.12999916   1.51999998  53.04999924
H    25.56999969  -0.12000000  53.76999664
