96

S    17.35999870   5.28999996  58.88000107
C    20.06999969   5.23999977  58.11000061
C    18.76000023   4.92000008  57.84000015
C    18.38000107   4.44999981  56.53999710
C    19.40000153   4.19999981  55.63999939
C    20.76999855   4.34999990  55.97999954
C    21.81999969   4.19999981  55.02999878
C    23.11000061   4.61999989  55.26000214
C    23.45999908   5.17000008  56.52999878
C    22.49000168   5.35000038  57.48000336
C    21.12999916   5.03000021  57.19999695
C    16.93000031   4.40000010  56.40999603
C    16.25000000   4.88999987  57.56000137
C    14.88000011   5.10999966  57.54000092
C    24.90999985   5.42999983  56.86000061
H    25.25797844   4.76244783  57.64828110
H    20.29999924   5.80999947  59.01000214
H    19.19999886   3.98000002  54.59999847
H    21.53000069   3.71000004  54.10999680
H    23.94000053   4.42000008  54.59000015
H    22.63000107   5.86999989  58.43000031
H    14.29999924   5.35000038  58.43000031
H    25.55999947   5.27999973  55.98999786
H    25.03000069   6.48000002  57.15000153
S    13.73999977   3.88999987  53.95000076
C    11.06999969   3.76999998  54.52999878
C    12.30999947   4.21000004  54.94999695
C    12.65999985   4.55999994  56.29000092
C    11.59999943   4.69000006  57.16999817
C    10.29000092   4.30000019  56.79000092
C     9.21000004   4.48000002  57.70000076
C     7.90999985   4.25000000  57.31999969
C     7.64999962   3.77999997  56.00999832
C     8.63000011   3.75999975  55.04000092
C     9.98999977   3.95000005  55.43000031
C    14.09000015   4.76999998  56.44000244
C    14.80999947   4.32000017  55.30000305
C    16.18000031   4.11999989  55.27000046
C     6.21999979   3.38999987  55.72000122
H     5.87233829   4.01437187  54.89696503
H    11.05999947   3.40999985  53.50999832
H    11.75000000   4.92000008  58.22000122
H     9.48999977   4.69999981  58.73000336
H     7.11999989   4.28000021  58.06999969
H     8.36999989   3.42999983  54.03999710
H    16.56999969   3.63000011  54.38000107
H     5.56999969   3.40000010  56.60999680
H     6.03999996   2.36000013  55.38999939
S    17.69000053   5.60999966  52.64999771
C    20.40999985   5.60999966  52.11999893
C    19.14999962   5.27999973  51.69000244
C    18.85000038   4.86999989  50.34999847
C    19.85999870   4.86000013  49.40000153
C    21.19999886   5.13999987  49.78000259
C    22.27999878   4.90999985  48.88999939
C    23.57000160   5.10999966  49.29999924
C    23.81000137   5.64000034  50.59999847
C    22.79000092   5.78999996  51.52000046
C    21.45000076   5.51000023  51.14999771
C    17.40999985   4.88000011  50.12000275
C    16.65999985   5.33999968  51.23000336
C    15.27999973   5.49000025  51.25999832
C    25.23999977   6.01000023  50.93000031
H    25.76786613   5.31806660  51.58626556
H    20.51000214   5.98000002  53.13000107
H    19.63000107   4.59999990  48.36999893
H    22.06999969   4.51999998  47.88999939
H    24.41999817   4.80999994  48.68999863
H    23.02999878   5.98999977  52.56000137
H    14.85000038   5.75000000  52.22999954
H    25.84000015   6.11000013  50.01999664
H    25.17999840   6.98999977  51.39999771
S    14.27000046   4.36999989  47.61000061
C    11.52999973   4.21000004  48.31999969
C    12.81000042   4.63000011  48.60000229
C    13.15000057   5.07999992  49.92000198
C    12.15000057   5.26999998  50.84999847
C    10.80999947   4.86999989  50.61000061
C     9.82999992   4.94999981  51.63999939
C     8.53999996   4.61000013  51.31999969
C     8.22000027   4.19000006  50.00999832
C     9.17000008   4.00999975  49.02000046
C    10.51000023   4.41000032  49.27999878
C    14.59000015   5.13999987  50.10000229
C    15.34999943   4.73000002  48.96999741
C    16.72000122   4.51000023  48.95999908
C     6.76000023   3.94000006  49.72999954
H     6.38306999   4.54451084  48.90502167
H    11.31000042   3.68999982  47.38999939
H    12.53000069   5.49000025  51.84999847
H    10.03999901   5.26000023  52.65999603
H     7.71000004   4.86999989  51.97999954
H     8.94999981   3.65999985  48.02000046
H    17.28000069   4.15000010  48.09999847
H     6.14000034   4.17000008  50.61000061
H     6.60000038   2.93000007  49.31999969
