96

S    17.61999893   5.45000029  58.73000336
C    20.26000023   5.59000015  58.01000214
C    18.97999954   5.32000017  57.58999634
C    18.65999985   4.56999969  56.40999603
C    19.70000076   4.25000000  55.54999924
C    21.02999878   4.69000006  55.79000092
C    22.09000015   4.53000021  54.86000061
C    23.38999939   4.63999987  55.27999878
C    23.64000130   5.35000038  56.47999573
C    22.63000107   5.65000010  57.36000061
C    21.28000069   5.32999992  57.05999756
C    17.21999931   4.42999983  56.30000305
C    16.53000069   4.88999987  57.44999695
C    15.14000034   5.00999975  57.51999664
C    25.05000114   5.78000021  56.81000137
H    25.45603561   5.16738605  57.61494827
H    20.43999863   5.86000013  59.05000305
H    19.52999878   3.56999993  54.72999954
H    21.88999939   4.01999998  53.92000198
H    24.17000008   4.51000023  54.54000092
H    22.81999969   6.28000021  58.22999954
H    14.70999908   5.31000042  58.47000122
H    25.69000053   5.59999990  55.93999863
H    24.96999931   6.80000019  57.21000290
S    13.94000053   4.07999992  53.93000031
C    11.23000050   3.84000015  54.59000015
C    12.51000023   4.15999985  54.97000122
C    12.89999962   4.57999992  56.29000092
C    11.80999947   4.88000011  57.09000015
C    10.47000027   4.67000008  56.68000031
C     9.44999981   4.79999971  57.67000198
C     8.14999962   4.44000006  57.39999771
C     7.73999977   3.96000004  56.12999725
C     8.73000050   3.82999992  55.18000031
C    10.10000038   4.13999987  55.38999939
C    14.34000015   4.69000006  56.42000198
C    15.07999992   4.28000021  55.27999878
C    16.45000076   4.07999992  55.18000031
C     6.34000015   3.47000003  55.81999969
H     5.84970760   4.05977249  55.04547882
H    10.88999939   3.40000010  53.66000366
H    11.92999935   5.14999962  58.13000107
H     9.76000023   5.22000027  58.61999893
H     7.37999964   4.56999969  58.15000153
H     8.50000000   3.37000012  54.22000122
H    16.90999985   3.73000002  54.26000214
H     5.73999977   3.47000003  56.73999786
H     6.44999981   2.48000002  55.37000275
S    13.78999901   1.76999998  51.06999969
C    11.07999992   1.65000010  52.00000000
C    12.42000008   1.35000002  52.11000061
C    12.89000034   0.78000003  53.34000015
C    11.97999954   0.31000000  54.27000046
C    10.59000015   0.39999998  54.06999969
C     9.56999969  -0.24000001  54.82999802
C     8.23999977  -0.14999999  54.50000000
C     7.81000042   0.68000007  53.43000031
C     8.76000023   1.29999995  52.65999603
C    10.14999962   1.24000001  52.97999954
C    14.34000015   0.74000001  53.47000122
C    14.96000099   1.35000002  52.35000229
C    16.31999969   1.58000004  52.25999832
C     6.34000015   0.78000003  53.09000015
H     6.04901266   0.46062371  52.08928680
H    10.73999977   2.00999999  51.03000259
H    12.34000015  -0.31000000  55.08999634
H     9.81999969  -0.73000002  55.77000046
H     7.55999994  -0.65999997  55.18000031
H     8.42000008   1.50000000  51.63999939
H    16.77000046   1.89999998  51.31999969
H     5.88000011   0.13000000  53.83999634
H     5.86999989   1.75999999  53.25000000
S    17.57999992   0.25000000  55.84999847
C    20.28000069   0.59999996  55.13000107
C    18.94000053   0.69999999  54.80999756
C    18.54999924   1.22000003  53.53000259
C    19.55000114   1.61000001  52.65999603
C    20.93000031   1.51999998  52.91999817
C    21.98999786   1.79000008  52.00000000
C    23.29000092   1.56000006  52.38999939
C    23.64999962   1.16999996  53.70999908
C    22.65000153   0.87000000  54.59999847
C    21.28000069   1.00999999  54.22000122
C    17.11000061   1.13999999  53.33000183
C    16.53000069   0.46999997  54.43999863
C    15.17000008   0.17999999  54.43999863
C    25.03999901   0.74000001  54.13000107
H    25.40220642   1.25845098  55.01776123
H    20.59000015   0.12000000  56.04999924
H    19.32999992   2.07999992  51.70000076
H    21.65999985   2.06999993  51.00000000
H    24.07999992   1.72000003  51.65999985
H    22.79999924   0.50999999  55.61000061
H    14.75000000  -0.23000000  55.35999680
H    25.62999916   0.94999999  53.22999954
H    25.02000046  -0.34000003  54.31999969
