96

S    17.20000076   5.03000021  58.85000229
C    19.93000031   5.17000008  58.11000061
C    18.63999939   4.80999994  57.83000183
C    18.29000092   4.15000010  56.60999680
C    19.22999954   4.09000015  55.59999847
C    20.55000114   4.53999996  55.80999756
C    21.59000015   4.39000034  54.85000229
C    22.89999962   4.65999985  55.14999771
C    23.26000023   5.09000015  56.45000076
C    22.29999924   5.26000023  57.41000366
C    20.94000053   4.94000006  57.14000320
C    16.84000015   3.98000002  56.47999573
C    16.09000015   4.48999977  57.57999802
C    14.70999908   4.53999996  57.67000198
C    24.70999908   5.32000017  56.81999969
H    25.00918388   4.84273148  57.75316620
H    20.17000008   5.68000031  59.03999710
H    18.94000053   3.63999987  54.65000153
H    21.35999870   3.93000007  53.88999939
H    23.65999985   4.50000000  54.38999939
H    22.70000076   5.73000002  58.30999756
H    14.21000004   4.99000025  58.53000259
H    25.48000145   5.05000019  56.07999802
H    24.86000061   6.40999985  56.86000061
S    13.71999931   3.25000000  54.02000046
C    10.98999977   3.55999994  54.54999924
C    12.28999996   3.76999998  54.93999863
C    12.58999920   4.13000011  56.29000092
C    11.54999924   4.35999966  57.16999817
C    10.22999954   3.98000002  56.81999969
C     9.18000031   3.98000002  57.77999878
C     7.88000011   3.76999998  57.39999771
C     7.51999950   3.50000000  56.04999924
C     8.52000046   3.52999973  55.11000061
C     9.89000034   3.70000005  55.45000076
C    14.01999950   4.05000019  56.55000305
C    14.75000000   3.61999989  55.40999985
C    16.13999939   3.56999993  55.34999847
C     6.06999969   3.25999999  55.72000122
H     5.65794897   3.79992914  54.86748123
H    10.77000046   3.24000001  53.54000092
H    11.79999924   4.56999969  58.20999908
H     9.47000027   4.38000011  58.75000000
H     7.03000021   3.82999992  58.08000183
H     8.30000019   3.15000010  54.12000275
H    16.62999916   3.35000014  54.40000153
H     5.51000023   3.51000023  56.63000107
H     6.01000023   2.17999983  55.52999878
S    17.76000023   5.19000006  52.91999817
C    20.45999908   5.42000008  52.08000183
C    19.15999985   5.05000019  51.84000015
C    18.73999977   4.59999990  50.54000092
C    19.69000053   4.41000032  49.55999756
C    21.05999947   4.67999983  49.77000427
C    22.10000038   4.59000015  48.80000305
C    23.43000031   4.78999996  49.12000275
C    23.84000015   5.07999992  50.45000076
C    22.81999969   5.26999998  51.35000229
C    21.42000008   5.14999962  51.07999802
C    17.28999901   4.46999979  50.45999908
C    16.60000038   4.75000000  51.65999985
C    15.24000072   5.03999996  51.70000076
C    25.29999924   5.27999973  50.77999878
H    25.58437729   4.96007347  51.78243256
H    20.81000137   5.95000029  52.95999908
H    19.34999847   4.00000000  48.61000061
H    21.90000153   4.26000023  47.78999710
H    24.07999992   4.72000027  48.26000214
H    23.06999969   5.59999990  52.35000229
H    14.75000000   5.38999987  52.60000229
H    25.88999939   4.74000025  50.01999664
H    25.45999908   6.35999966  50.72000122
S    14.14999962   4.02999973  47.95000076
C    11.46000004   4.11000013  48.59000397
C    12.74000072   4.44000006  48.95000076
C    13.05999947   4.69000006  50.31999969
C    12.06999969   4.85000038  51.26999664
C    10.72999954   4.73000002  50.83000183
C     9.63999939   4.92000008  51.72000122
C     8.30999947   4.73000002  51.42000198
C     8.01000023   4.21999979  50.13000107
C     9.02000046   4.00999975  49.20999908
C    10.39000034   4.30000019  49.50000000
C    14.50000000   4.74000025  50.54999924
C    15.17000008   4.32000017  49.36999893
C    16.54999924   4.15999985  49.31000137
C     6.61999989   3.68000007  49.86000061
H     6.06931591   4.35226345  49.20204163
H    11.21000099   3.52999973  47.70000076
H    12.34000015   5.05000019  52.29999924
H     9.86999989   5.27999973  52.71999741
H     7.63000011   4.82999992  52.25999832
H     8.88000011   3.60000014  48.22000122
H    17.07999992   3.88000011  48.40000153
H     6.21999979   3.50000000  50.86999893
H     6.71000004   2.71000004  49.36000061
