96

S    17.51000023   5.07000017  58.93000031
C    20.17999840   5.17000008  58.09999847
C    18.88000107   4.82999992  57.81999969
C    18.48999977   4.32999992  56.53999710
C    19.43000031   4.18000031  55.52999878
C    20.76999855   4.53999996  55.79999924
C    21.77000046   4.44999981  54.79999924
C    23.08000183   4.74000025  55.13999939
C    23.45999908   5.14999962  56.44000244
C    22.50999832   5.36999989  57.41000366
C    21.15999985   5.07999992  57.08000183
C    17.05000114   4.19999981  56.42000198
C    16.40999985   4.67000008  57.60000229
C    15.03000069   4.75000000  57.71999741
C    24.89000130   5.60999966  56.63000107
H    25.33043289   4.85700512  57.28354645
H    20.55000114   5.50000000  59.06999969
H    19.29999924   3.76999998  54.52999878
H    21.38999939   4.23999977  53.80000305
H    23.84000015   4.75000000  54.36999893
H    22.72000122   5.82999992  58.37999725
H    14.52000046   5.26000023  58.54000092
H    25.39999962   5.51000023  55.66999817
H    24.89999962   6.65000010  56.98999786
S    13.85000038   3.52999973  54.03999710
C    11.21000099   3.65999985  54.73999786
C    12.50000000   3.88999987  55.13999939
C    12.84999943   4.42999983  56.42000198
C    11.82000065   4.65000010  57.31999969
C    10.47000027   4.39000034  56.95999908
C     9.38000011   4.65999985  57.83000183
C     8.07999992   4.30999994  57.54000092
C     7.79999971   3.65999985  56.31000137
C     8.80999947   3.52999973  55.37000275
C    10.14000034   3.96000004  55.61999893
C    14.28999996   4.32999992  56.60999680
C    14.91000080   3.81999993  55.44000244
C    16.28999901   3.72000003  55.34999847
C     6.44000006   3.01999998  56.11999893
H     5.83465195   3.66095710  55.47904205
H    11.10000038   3.12000012  53.80000305
H    11.98999977   4.94999981  58.34000015
H     9.61000061   5.03000021  58.81999969
H     7.37999964   4.34999990  58.36000061
H     8.56999969   3.05999994  54.41999817
H    16.73999977   3.51000023  54.38999939
H     5.93999958   2.73999977  57.05999756
H     6.67999983   2.09000015  55.59000015
S    17.76000023   5.58000040  52.58999634
C    20.40999985   5.60999966  51.79999924
C    19.13999939   5.13000011  51.56999969
C    18.71999931   4.51000023  50.34999847
C    19.68000031   4.39000034  49.36000061
C    21.02000046   4.81999969  49.56999969
C    22.04999924   4.53000021  48.62999725
C    23.36999893   4.76999998  48.93000031
C    23.72999954   5.55000019  50.06000137
C    22.78000069   5.75000000  51.03000259
C    21.40999985   5.44000053  50.80999756
C    17.27000046   4.50000000  50.20999908
C    16.62999916   5.10999966  51.31999969
C    15.24000072   5.17000008  51.38000107
C    25.15999985   5.89999962  50.43000031
H    25.66715050   5.20713186  51.10144043
H    20.69999886   6.25000000  52.63000107
H    19.34000015   4.05999994  48.37999725
H    21.78999901   4.00000000  47.71999741
H    24.11000061   4.35999966  48.25000000
H    22.98999977   5.98999977  52.06999969
H    14.75999928   5.28999996  52.34000397
H    25.69000053   6.09000015  49.48999786
H    25.19000053   6.90000010  50.89000320
S    13.99000072   4.03999996  47.81000137
C    11.26999950   4.21000004  48.50999832
C    12.58999920   4.26000023  48.88999939
C    12.97000027   4.61999989  50.21999741
C    12.02000046   4.88000011  51.18999863
C    10.65000057   4.77999973  50.83000183
C     9.68999958   4.78999996  51.86999893
C     8.36999989   4.50000000  51.63000107
C     8.01000023   4.26999998  50.27000046
C     8.89999962   4.11999989  49.23999786
C    10.26000023   4.44999981  49.47999954
C    14.42000008   4.76999998  50.31000137
C    15.11999989   4.44000006  49.13000107
C    16.48999977   4.23999977  49.08000183
C     6.56000042   3.88000011  50.04000092
H     6.12697601   4.44790030  49.21654510
H    11.06999969   3.88000011  47.50000000
H    12.36999989   5.17000008  52.16999817
H    10.06000042   4.97000027  52.88000107
H     7.67000008   4.63999987  52.43999863
H     8.64999962   3.72000003  48.26000214
H    16.90000153   4.00999975  48.09999847
H     5.97000027   3.86999989  50.96000290
H     6.51000023   2.82000017  49.75999832
