96

S    17.56000137   4.96000004  58.81000137
C    20.22999954   5.13999987  58.15000153
C    18.95000076   4.88000011  57.70999908
C    18.60000038   4.35999966  56.42000198
C    19.63000107   4.09999990  55.52999878
C    20.95000076   4.42999983  55.90999985
C    21.97000122   4.30000019  54.93000031
C    23.29999924   4.46999979  55.26000214
C    23.68000031   4.76999998  56.59000015
C    22.67000008   4.90999985  57.51999664
C    21.28000069   4.81999969  57.25999832
C    17.14999962   4.28999996  56.30000305
C    16.44000053   4.51999998  57.50000000
C    15.07999992   4.78999996  57.50999832
C    25.09000015   5.18000031  56.95999908
H    25.54461861   4.56200171  57.73427200
H    20.45000076   5.51999998  59.15000153
H    19.47000122   3.53999996  54.61000061
H    21.80999947   3.88000011  53.94000244
H    24.04000092   4.28999996  54.47999954
H    22.95000076   5.32000017  58.48999786
H    14.70000076   5.07000017  58.48999786
H    25.72999954   5.14999962  56.06999969
H    25.10000038   6.21999979  57.30999756
S    13.86000061   3.75999975  53.89999771
C    11.18000031   3.74000025  54.73999786
C    12.48999977   4.05000019  55.00000000
C    12.86999893   4.56999969  56.27999878
C    11.89000034   4.61999989  57.25999832
C    10.52999973   4.41000032  56.95000076
C     9.50000000   4.51000023  57.94000244
C     8.17000008   4.28999996  57.65999603
C     7.85000038   3.70000005  56.42000198
C     8.76999950   3.55999994  55.40000153
C    10.11999989   3.91999984  55.65999985
C    14.32000065   4.69000006  56.32999802
C    15.00000000   4.23000002  55.17000198
C    16.36999893   4.00999975  55.18000031
C     6.47000027   3.15000010  56.12999725
H     5.98188019   3.77252960  55.38013458
H    10.93999958   3.25000000  53.79000092
H    12.22000027   4.98000002  58.22999954
H     9.78999996   4.63000011  58.97999573
H     7.40999985   4.32000017  58.43999863
H     8.56000042   3.17000008  54.40000153
H    16.81999969   3.53999996  54.29999924
H     5.98000002   2.96999979  57.09000015
H     6.61000013   2.13000011  55.77000046
S    17.72999954   5.46999979  52.56999969
C    20.40999985   5.29999971  51.98999786
C    19.12999916   5.00000000  51.58000183
C    18.71999931   4.59999990  50.27000046
C    19.78000069   4.34999990  49.40999985
C    21.09999847   4.75000000  49.71000290
C    22.19000053   4.63999987  48.80000305
C    23.48999977   4.97000027  49.13000107
C    23.81999969   5.29999971  50.47000122
C    22.81999969   5.32999992  51.40999603
C    21.45000076   5.17000008  51.04000092
C    17.28000069   4.40000010  50.13999939
C    16.63999939   4.97000027  51.25999832
C    15.26000023   5.13999987  51.31000137
C    25.17999840   5.75999975  50.93999863
H    25.75046921   5.18239832  51.66735077
H    20.59999847   5.61999989  53.01000214
H    19.55999947   3.88000011  48.46000290
H    21.90999985   4.13000011  47.88000107
H    24.27999878   5.03999996  48.39000320
H    23.19999886   5.51999998  52.41000366
H    14.88000011   5.63000011  52.19999695
H    25.88000107   5.91000032  50.11000061
H    24.86999893   6.76000023  51.25000000
S    13.97999954   3.75000000  47.81000137
C    11.28999901   3.93000007  48.47999954
C    12.60000038   4.11999989  48.85000229
C    13.02000046   4.63999987  50.12000275
C    12.02999973   4.90999985  51.04999924
C    10.65999985   4.76999998  50.70000076
C     9.61000061   4.96000004  51.63000107
C     8.28999996   4.65999985  51.39999771
C     7.94000053   4.19000006  50.11000061
C     8.89999962   3.94000006  49.15999985
C    10.26999950   4.23000002  49.41999817
C    14.47000027   4.69000006  50.25000000
C    15.11999989   4.15000010  49.10999680
C    16.50000000   4.02999973  49.03999710
C     6.51000023   3.76999998  49.85000229
H     6.09834242   4.37329102  49.04088211
H    11.00999928   3.51000023  47.51999664
H    12.22000027   5.23999977  52.06999969
H     9.89000034   5.18000031  52.65999603
H     7.55000019   4.86999989  52.18000031
H     8.61999989   3.42999983  48.23999786
H    16.95000076   3.88999987  48.06000137
H     6.05999994   3.65999985  50.84000015
H     6.53999996   2.71000004  49.55999756
