96

S    17.71999931   5.28999996  59.06999969
C    20.40999985   5.44000053  58.27999878
C    19.13999939   5.00000000  58.04000092
C    18.76000023   4.44999981  56.77999878
C    19.70999908   4.30000019  55.77000046
C    21.00000000   4.84000015  55.97999954
C    22.03000069   4.73000002  55.00000000
C    23.32999992   5.13000011  55.22999573
C    23.68000031   5.51999998  56.55000305
C    22.73999977   5.68000031  57.55000305
C    21.38000107   5.40000010  57.25000000
C    17.31999969   4.28999996  56.66999817
C    16.60000038   4.74000025  57.81000137
C    15.21000004   4.71000004  57.80000305
C    25.12000084   5.88999987  56.79999924
H    25.59027672   5.30571747  57.59091949
H    20.61000061   5.97000027  59.22000122
H    19.55999947   3.58999991  54.95999908
H    21.87000084   4.26000023  54.02999878
H    23.90000153   5.09000015  54.31000137
H    22.95999908   5.98999977  58.56999969
H    14.63000107   4.88000011  58.69999695
H    25.68000031   5.86999989  55.84999847
H    25.13999939   6.96000004  57.02999878
S    14.14000034   3.70000005  54.09000015
C    11.44000053   3.91999984  54.71000290
C    12.74000072   4.11000013  55.10000229
C    13.02999973   4.51000023  56.45000076
C    12.00000000   4.78999996  57.34000397
C    10.70000076   4.39000034  56.97000122
C     9.61000061   4.48000002  57.88999939
C     8.30000019   4.21000004  57.56999969
C     8.02999973   3.74000025  56.25999832
C     9.02000046   3.67000008  55.30000305
C    10.36999893   3.98000002  55.63000107
C    14.46000004   4.42000008  56.65000153
C    15.18000031   3.98999977  55.50000000
C    16.55999947   3.94000006  55.54999924
C     6.60000038   3.32999992  55.97999954
H     6.25274944   3.79772496  55.05872345
H    11.36999989   3.76999998  53.62999725
H    12.25000000   5.10999966  58.34000015
H     9.81000042   4.94000006  58.85000229
H     7.44999981   4.38000011  58.20999908
H     8.86999989   3.31999993  54.29000092
H    17.12000084   3.75999975  54.62999725
H     5.92000008   3.61000013  56.79999924
H     6.61000013   2.23000002  55.97999954
S    13.86999989   1.94000006  51.04000092
C    11.25000000   1.65000010  51.84999847
C    12.57999992   1.38000000  52.11999893
C    12.98999977   0.57999998  53.23999786
C    12.01000023   0.17999999  54.12000275
C    10.62999916   0.41999999  53.92000198
C     9.61999989  -0.16000001  54.72999954
C     8.30000019  -0.05000000  54.36000061
C     7.92000008   0.51999998  53.11000061
C     8.89000034   1.15999997  52.37999725
C    10.26000023   1.16999996  52.74000168
C    14.45000076   0.59999996  53.34999847
C    15.01000023   1.28999996  52.23999786
C    16.32999992   1.71000004  52.15000153
C     6.52999973   0.17999999  52.62000275
H     6.24455070   0.80085164  51.77079010
H    11.00000000   1.80999994  50.80999756
H    12.35999966  -0.34000003  55.00999832
H     9.92000008  -0.65999997  55.65999985
H     7.50999975  -0.51999998  54.93000031
H     8.73000050   1.48000002  51.35000229
H    16.69999886   2.39999986  51.39999771
H     6.37000036  -0.88000000  52.36999893
H     5.84000015   0.41999999  53.43000031
S    17.80999947   0.08000001  55.47999954
C    20.43999863   0.90000004  54.88999939
C    19.10000038   0.87000000  54.55999756
C    18.59000015   1.58999991  53.43000031
C    19.52000046   2.09999990  52.54000092
C    20.89999962   1.94999993  52.77000046
C    21.90999985   2.50999975  51.93000031
C    23.25000000   2.56000018  52.22999954
C    23.74000168   1.95999992  53.41999817
C    22.80999947   1.44999993  54.29999924
C    21.40999985   1.46000004  54.02000046
C    17.17000008   1.36000013  53.22000122
C    16.61000061   0.63000000  54.29999924
C    15.29999924   0.16000001  54.36000061
C    25.20000076   1.64000010  53.63999939
H    25.55623817   1.86799288  54.64459610
H    20.78000069   0.43000001  55.79999924
H    19.15999985   2.53999996  51.60999680
H    21.56999969   3.01999998  51.03000259
H    23.94000053   3.05000019  51.55000305
H    23.19999886   1.05999994  55.22999573
H    15.01000023  -0.27000001  55.31000137
H    25.79000092   2.05999994  52.81999969
H    25.29999924   0.55000001  53.50999832
