96

S    17.04000092   5.19000006  58.85000229
C    19.78000069   5.26999998  58.25000000
C    18.52000046   4.79999971  57.97000122
C    18.20999908   4.21000004  56.70000076
C    19.18000031   4.13000011  55.72000122
C    20.45999908   4.69000006  55.94999695
C    21.51000023   4.55999994  55.00000000
C    22.80999947   4.81999969  55.34999847
C    23.12999916   5.33999968  56.63000107
C    22.13000107   5.56999969  57.54000092
C    20.79000092   5.19999981  57.25000000
C    16.77999878   4.09000015  56.45999908
C    16.01000023   4.57999992  57.55000305
C    14.61999989   4.67999983  57.54000092
C    24.51999855   5.65999985  57.15000153
H    24.92397881   4.95126486  57.87290955
H    19.96999931   5.82999992  59.15999985
H    18.95000076   3.65999985  54.75999832
H    21.28000069   4.11000013  54.02999878
H    23.64000130   4.61999989  54.66999817
H    22.34000015   5.86999989  58.56999969
H    14.11999893   5.22000027  58.33000183
H    25.13999939   5.66999960  56.24000168
H    24.54000092   6.67999983  57.55000305
S    13.60999966   3.45999980  53.88999939
C    10.88000107   3.48000002  54.47999954
C    12.17000008   3.73000002  54.88999939
C    12.53000069   4.07999992  56.23000336
C    11.47999954   4.40000010  57.05999756
C    10.14000034   4.07999992  56.75000000
C     9.06999969   4.13000011  57.69000244
C     7.77999973   3.91000009  57.27000427
C     7.49000025   3.31999993  56.02000427
C     8.53999996   3.07999992  55.17000198
C     9.86999989   3.45999980  55.47999954
C    13.97999954   4.15000010  56.40999603
C    14.70000076   3.75999975  55.26000214
C    16.09000015   3.67000008  55.31999969
C     6.05999994   2.98000002  55.65999985
H     5.65591908   3.58966637  54.85183716
H    10.72000027   3.05999994  53.48999786
H    11.64000034   4.92999983  58.00000000
H     9.32999992   4.51000023  58.67000198
H     6.98000002   4.28000021  57.90999985
H     8.42000008   2.66000009  54.16999817
H    16.65999985   3.30000019  54.45999908
H     5.50000000   3.10999990  56.59000015
H     5.91000032   1.92000008  55.45000076
S    17.53999901   5.42999983  52.81999969
C    20.25000000   5.78999996  52.06999969
C    18.97999954   5.32999992  51.79000092
C    18.67000008   4.85000038  50.47999954
C    19.68000031   4.76000023  49.54000092
C    21.04000092   4.98000002  49.86000061
C    22.13000107   4.88000011  48.95999908
C    23.42000008   5.07000017  49.40000153
C    23.68999863   5.51000023  50.72000122
C    22.65000153   5.69999981  51.60999680
C    21.31000137   5.52999973  51.17000198
C    17.22999954   4.75000000  50.27999878
C    16.47999954   5.05999994  51.45000076
C    15.10000038   5.19000006  51.46999741
C    25.10000038   5.88999987  51.13999939
H    25.61931229   5.16438675  51.76601791
H    20.43000031   6.17000008  53.06999969
H    19.37000084   4.53000021  48.52000427
H    22.00000000   4.56999969  47.93000031
H    24.20999908   5.05000019  48.64999771
H    22.86999893   5.91000032  52.64999771
H    14.61999989   5.46000004  52.39999771
H    25.72999954   6.03999996  50.26000214
H    25.10999870   6.80999994  51.72999954
S    14.01000023   4.15999985  47.81000137
C    11.32999992   3.91999984  48.47999954
C    12.60000038   4.26999998  48.88000107
C    12.92000008   4.76000023  50.19000244
C    11.97000027   4.85000038  51.18999863
C    10.67000008   4.46000004  50.80999756
C     9.61000061   4.67000008  51.73999786
C     8.34000015   4.23000002  51.46999741
C     7.96000004   3.84999990  50.14999771
C     8.97000027   3.73000002  49.22999954
C    10.32999992   4.09000015  49.47000122
C    14.35999966   4.97000027  50.30000305
C    15.10000038   4.59999990  49.15000153
C    16.48999977   4.51999998  49.10999680
C     6.50000000   3.61000013  49.81999969
H     6.03153133   4.28431082  49.10310364
H    11.09000015   3.48000002  47.51999664
H    12.09000015   5.09999990  52.23999786
H     9.81999969   5.05000019  52.74000168
H     7.57999992   4.36999989  52.22999954
H     8.76000023   3.37000012  48.22000122
H    16.97000122   4.23999977  48.18000031
H     5.84000015   3.77999997  50.66999817
H     6.42000008   2.61000013  49.38999939
