96

S    16.88999939   4.86000013  58.94000244
C    19.63999939   4.72000027  58.22999954
C    18.30999947   4.59999990  57.90000153
C    17.97000122   4.09999990  56.60999680
C    19.02000046   3.81999993  55.75000000
C    20.38000107   4.03999996  56.06999969
C    21.42000008   3.97000027  55.11000061
C    22.69000053   4.42000008  55.40000153
C    22.98000145   4.97000027  56.68000031
C    22.06000137   5.00999975  57.69000244
C    20.73999786   4.61000013  57.34000397
C    16.52000046   4.05999994  56.42000198
C    15.81999969   4.53000021  57.56000137
C    14.45000076   4.74000025  57.62000275
C    24.38999939   5.46000004  56.93000031
H    24.71801376   5.06780910  57.89265060
H    19.88000107   5.10999966  59.22000122
H    18.78999901   3.31999993  54.81999969
H    21.14000130   3.67000008  54.09999847
H    23.38000107   4.59999990  54.58000183
H    22.32000160   5.51000023  58.62999725
H    14.00000000   5.15999985  58.52000427
H    25.12000084   5.09000015  56.18999863
H    24.40999985   6.54999971  56.91999817
S    13.22000027   3.12999988  54.27999878
C    10.53999996   3.05000019  54.92000198
C    11.79999924   3.42000008  55.30000305
C    12.18999958   4.00999975  56.55000305
C    11.21000099   4.11000013  57.50999832
C     9.86999989   3.79999995  57.16999817
C     8.73999977   4.07000017  57.98999786
C     7.44000006   3.88000011  57.58999634
C     7.13000011   3.40000010  56.29000092
C     8.17000008   3.09999990  55.45000076
C     9.52000046   3.23000002  55.89000320
C    13.61999989   4.30000019  56.58000183
C    14.34999943   3.77999997  55.47999954
C    15.72999954   3.71000004  55.31999969
C     5.75999975   2.93000007  55.84999847
H     5.31087828   3.62150502  55.13710785
H    10.27999973   2.77999997  53.89999771
H    11.49000072   4.48999977  58.48999786
H     8.89999962   4.55999994  58.95000076
H     6.71999979   4.02999973  58.39000320
H     7.92000008   2.82000017  54.43000031
H    16.13000107   3.23000002  54.43000031
H     5.05999994   2.75000000  56.66999817
H     5.97000027   2.02999997  55.24000168
S    17.27000046   5.29999971  52.88000107
C    19.93000031   5.23999977  52.16999817
C    18.64999962   4.86999989  51.84999847
C    18.31999969   4.23999977  50.61000061
C    19.27000046   4.09999990  49.61999893
C    20.61000061   4.39000034  49.98000336
C    21.70000076   4.13000011  49.09999847
C    23.01000214   4.48999977  49.33000183
C    23.31999969   5.19999981  50.52000046
C    22.34000015   5.29999971  51.47999573
C    20.96999931   4.96000004  51.24000168
C    16.87000084   4.30999994  50.45000076
C    16.18000031   4.79999971  51.58000183
C    14.78999996   4.88000011  51.60999680
C    24.73999977   5.65999985  50.77999878
H    25.23694420   5.05656719  51.53961563
H    20.05000114   5.73999977  53.13000107
H    19.05999947   3.77999997  48.60000229
H    21.56999969   3.51000023  48.20999908
H    23.72999954   4.35999966  48.53000259
H    22.67999840   5.82000017  52.36999893
H    14.26000023   5.05000019  52.55000305
H    25.29999924   5.60999966  49.84000397
H    24.75000000   6.65999985  51.20999908
S    13.61999989   3.97000027  47.95999908
C    10.88000107   3.98999977  48.61000061
C    12.18999958   4.15999985  48.99000168
C    12.56999969   4.50000000  50.33000183
C    11.59000015   4.59999990  51.31000137
C    10.24000072   4.44999981  50.91999817
C     9.21000004   4.44000006  51.90000153
C     7.88999987   4.19000006  51.59000015
C     7.49000025   4.21999979  50.22999573
C     8.46000004   4.07000017  49.27000046
C     9.85000038   4.15000010  49.56999969
C    14.01000023   4.61000013  50.47999954
C    14.73999977   4.30000019  49.29999924
C    16.10000038   4.05000019  49.29999924
C     6.07999992   3.88000011  49.79999924
H     5.81652355   4.37846899  48.86714935
H    10.60999966   3.56999993  47.64999771
H    11.90000057   4.74000025  52.34000397
H     9.47000027   4.74000025  52.91999817
H     7.20000029   3.96000004  52.38999939
H     8.14999962   3.78999996  48.27000046
H    16.63999939   3.63999987  48.46000290
H     5.42999983   4.13000011  50.63999939
H     6.05999994   2.77999997  49.69999695
