96

S    17.17000008   5.05999994  58.92000198
C    19.88000107   4.90000010  58.20000076
C    18.55999947   4.65999985  57.90000153
C    18.15000153   4.23999977  56.59000015
C    19.13999939   4.15000010  55.63000107
C    20.52000046   4.30999994  55.89000320
C    21.52000046   4.25000000  54.87999725
C    22.86999893   4.34999990  55.11000061
C    23.19999886   4.78999996  56.42000198
C    22.29000092   4.84000015  57.44999695
C    20.88999939   4.71000004  57.22000122
C    16.70999908   4.36999989  56.45000076
C    16.00000000   4.79999971  57.60000229
C    14.63000107   5.00000000  57.67000198
C    24.56999969   5.32000017  56.79000092
H    25.11096382   4.65803099  57.46620560
H    20.20000076   5.18000031  59.20000076
H    19.01000023   3.96000004  54.55999756
H    21.25999832   3.96000004  53.87000275
H    23.57999992   4.21999979  54.29999924
H    22.60999870   5.18000031  58.43999863
H    14.14999962   5.26000023  58.61000061
H    25.17999840   5.32000017  55.86999893
H    24.37999916   6.32000017  57.18000031
S    13.50000000   3.82999992  54.00000000
C    10.81999969   3.75000000  54.64000320
C    12.07999992   4.13000011  55.04000092
C    12.41000080   4.69999981  56.31000137
C    11.38000011   4.80999994  57.22000122
C    10.08999920   4.34999990  56.88000107
C     9.02999973   4.33999968  57.84000015
C     7.75000000   3.98000002  57.50000000
C     7.44000006   3.71000004  56.13999939
C     8.40999985   3.65999985  55.17000198
C     9.76000023   3.88000011  55.56000137
C    13.85000038   4.73000002  56.53999710
C    14.52999973   4.32999992  55.35999680
C    15.90999985   4.17000008  55.31999969
C     6.05999994   3.17000008  55.86000061
H     5.57699776   3.71692920  55.05026245
H    10.62999916   3.38000011  53.62999725
H    11.65999985   5.05999994  58.23999786
H     9.19000053   4.65999985  58.86000061
H     6.97000027   4.03999996  58.25000000
H     8.26000023   3.33999991  54.13000107
H    16.34000015   3.72000003  54.43000031
H     5.49000025   3.19999981  56.79999924
H     6.12999964   2.15000010  55.45000076
S    17.38000107   5.46999979  52.55000305
C    20.09000015   5.46000004  51.95000076
C    18.81000137   5.23000002  51.52000046
C    18.46999931   4.88999987  50.17000198
C    19.51000023   4.75000000  49.27000046
C    20.85000038   5.00999975  49.65000153
C    21.94999886   4.69999981  48.80000305
C    23.22000122   5.09999990  49.13000107
C    23.51000023   5.71000004  50.38999939
C    22.49000168   5.78000021  51.30000305
C    21.14999962   5.42000008  51.00000000
C    17.02999878   4.84000015  49.97000122
C    16.32999992   5.23999977  51.13999939
C    14.94999981   5.35000038  51.23000336
C    24.90999985   6.17999983  50.72999954
H    25.51343155   5.42038488  51.22694397
H    20.17000008   5.84000015  52.95999908
H    19.36000061   4.39000034  48.26000214
H    21.68000031   4.26999998  47.84000015
H    23.95999908   5.12000036  48.33000183
H    22.72000122   6.07999992  52.31999969
H    14.51000023   5.51999998  52.21000290
H    25.43999863   6.44999981  49.80999756
H    24.73999977   7.09999990  51.29000092
S    13.83999920   3.96000004  47.67000198
C    11.07999992   4.13999987  48.27999878
C    12.39999962   4.34999990  48.62999725
C    12.72999954   4.80999994  49.94999695
C    11.72000027   5.09999990  50.86000061
C    10.38000011   4.78999996  50.54000092
C     9.38000011   4.94000006  51.53999710
C     8.06999969   4.67000008  51.23000336
C     7.68000031   4.42999983  49.88999939
C     8.64000034   4.23999977  48.93000031
C    10.03000069   4.41000032  49.19000244
C    14.15999985   4.92000008  50.14999771
C    14.88000011   4.48999977  49.01000214
C    16.26000023   4.46000004  48.87000275
C     6.28000021   3.88999987  49.68000031
H     5.79184008   4.31448698  48.80272675
H    10.92000008   3.86000013  47.23999786
H    11.98999977   5.49000025  51.84000015
H     9.48999977   5.36000013  52.52999878
H     7.36000013   4.44999981  52.02000046
H     8.38000011   3.96000004  47.90999985
H    16.69000053   3.95000005  48.01000214
H     5.66999960   4.00000000  50.58000183
H     6.34000015   2.80999994  49.45999908
