96

S    17.22999954   5.09000015  58.64999771
C    19.93999863   5.15999985  57.94000244
C    18.65999985   4.73000002  57.68000031
C    18.30000114   4.19999981  56.39999771
C    19.30999947   4.19999981  55.45000076
C    20.65000153   4.55000019  55.75000000
C    21.65999985   4.32000017  54.78000259
C    22.96999931   4.63000011  55.06000137
C    23.31999969   5.21000004  56.31000137
C    22.37999916   5.42999983  57.29000092
C    21.02999878   5.03999996  57.04000092
C    16.84999847   4.21000004  56.19999695
C    16.11999893   4.67999983  57.31999969
C    14.73999977   4.76999998  57.38999939
C    24.75000000   5.63000011  56.56000137
H    25.20648575   4.96666956  57.29465485
H    20.03000069   5.60999966  58.93000031
H    19.19000053   3.79999995  54.45000076
H    21.35000038   3.84000015  53.85000229
H    23.68000031   4.21999979  54.34000015
H    22.67999840   5.91000032  58.22000122
H    14.28999996   5.21000004  58.27999878
H    25.17000008   5.53999996  55.54999924
H    24.86999893   6.61000013  57.04999924
S    13.61999989   3.63999987  53.77999878
C    10.88000107   3.73000002  54.54999924
C    12.20999908   4.00999975  54.79000092
C    12.57999992   4.56999969  56.05999756
C    11.57999992   4.73000002  57.00000000
C    10.19999981   4.48999977  56.76000214
C     9.17000008   4.57999992  57.74000168
C     7.88000011   4.25000000  57.43000031
C     7.46000004   3.96000004  56.10000229
C     8.46000004   3.75000000  55.19000244
C     9.82999992   4.01999998  55.45999908
C    14.02999973   4.53999996  56.20999908
C    14.73999977   4.00999975  55.10000229
C    16.11999893   3.84999990  55.06000137
C     6.01999998   3.56999993  55.84999847
H     5.57848787   4.20378351  55.08091736
H    10.62000084   3.38000011  53.55999756
H    11.85999966   5.05000019  58.00000000
H     9.39999962   4.92000008  58.75000000
H     7.14999962   4.13999987  58.22999954
H     8.21000004   3.37000012  54.20000076
H    16.65999985   3.50000000  54.19000244
H     5.36999989   3.67000008  56.72999954
H     5.88000011   2.50999975  55.59000015
S    14.06000042   1.51999998  50.72000122
C    11.32999992   1.28000009  51.44000244
C    12.65999985   1.10000002  51.72999954
C    13.05999947   0.43000001  52.94000244
C    12.11999989  -0.06000000  53.81999969
C    10.76000023   0.28000000  53.68000031
C     9.72999954  -0.23000000  54.52999878
C     8.42000008   0.12000000  54.29000092
C     8.05999947   0.92000002  53.18000031
C     9.02999973   1.29999995  52.28000259
C    10.39999962   0.97000003  52.47000122
C    14.51000023   0.37000000  53.06999969
C    15.17000008   1.03999996  52.02000046
C    16.54000092   1.28999996  52.01000214
C     6.61999989   1.31999993  52.98999786
H     6.24249840   0.87127149  52.07117462
H    11.10999966   1.76999998  50.48999786
H    12.38999939  -0.69999999  54.65999985
H     9.89999962  -0.97000003  55.31000137
H     7.64999962  -0.19999999  54.99000168
H     8.85000038   1.74000001  51.30000305
H    16.98999977   1.67999995  51.11000061
H     6.05999994   0.90999997  53.83999634
H     6.46000004   2.38999987  52.84000015
S    17.78000069  -0.08000001  55.48999786
C    20.38999939   0.61000001  54.99000168
C    19.07999992   0.78000003  54.62999725
C    18.71000099   1.36000013  53.36999893
C    19.67000008   1.69000006  52.43999863
C    21.02000046   1.48000002  52.80000305
C    22.06999969   1.82999992  51.90000153
C    23.38999939   1.63000000  52.22000122
C    23.71999931   0.93999994  53.41999817
C    22.77000046   0.57999998  54.34999847
C    21.42000008   0.90999997  54.06000137
C    17.28000069   1.12000000  53.18999863
C    16.64999962   0.32999998  54.18000031
C    15.31000042  -0.04000000  54.13999939
C    25.17000008   0.64000005  53.74000168
H    25.62598801   1.19573426  54.55935287
H    20.65000153   0.03000000  55.86999893
H    19.43000031   1.80999994  51.38999939
H    21.84000015   2.22000003  50.90999985
H    24.11999893   1.65000010  51.43000031
H    22.93999863  -0.01000000  55.25000000
H    14.86999989  -0.54000002  55.00000000
H    25.69999886   0.87000000  52.81000137
H    25.09000015  -0.41999999  54.00000000
