96

S    17.53999901   5.35000038  58.61999893
C    20.20000076   5.45000029  57.88999939
C    18.94000053   4.99000025  57.60000229
C    18.57999992   4.51999998  56.29000092
C    19.60000038   4.36999989  55.37000275
C    20.93000031   4.76000023  55.61999893
C    22.01000023   4.57999992  54.69999695
C    23.25000000   5.07000017  55.00000000
C    23.54999924   5.65000010  56.25999832
C    22.52000046   5.84999990  57.14000320
C    21.18999863   5.40999985  56.88000107
C    17.13999939   4.35999966  56.23000336
C    16.40999985   4.81999969  57.36000061
C    15.03000069   4.97000027  57.35000229
C    24.96999931   6.05000019  56.60999680
H    25.37537766   5.36725855  57.35674667
H    20.39999962   5.89999962  58.86000061
H    19.36000061   4.09000015  54.34000015
H    21.70000076   4.15999985  53.74000168
H    24.06999969   4.88000011  54.31000137
H    22.79999924   6.21999979  58.11999893
H    14.48999977   5.23999977  58.25000000
H    25.55000114   6.01999998  55.68000031
H    25.07999802   7.03000021  57.09999847
S    13.86999989   3.58999991  53.89999771
C    11.18999958   3.54999995  54.45000076
C    12.43999958   3.94000006  54.86999893
C    12.79999924   4.63000011  56.07999802
C    11.72000027   4.80999994  56.91999817
C    10.40999985   4.36999989  56.63999939
C     9.30000019   4.48999977  57.54000092
C     8.05999947   4.05000019  57.15000153
C     7.77999973   3.45000005  55.90000153
C     8.85000038   3.21000004  55.06999969
C    10.13000011   3.76999998  55.35999680
C    14.25000000   4.65999985  56.23000336
C    15.00000000   4.18000031  55.13000107
C    16.39000130   4.02999973  55.10000229
C     6.46000004   2.79000020  55.56000137
H     5.85983658   3.41159797  54.89553070
H    11.00999928   3.07999992  53.47999954
H    11.90000057   5.03999996  57.97000122
H     9.59000015   5.00999975  58.44999695
H     7.28999996   4.28000021  57.88000107
H     8.90999985   2.56999993  54.20000076
H    16.95999908   3.67000008  54.25000000
H     5.88000011   2.56999993  56.46999741
H     6.65000010   1.87000012  54.99000168
S    17.64000130   5.61999989  52.60000229
C    20.29000092   5.93999958  51.79000092
C    19.03000069   5.46000004  51.51000214
C    18.60000038   4.84000015  50.30000305
C    19.63999939   4.57999992  49.41999817
C    20.95999908   5.05999994  49.61000061
C    22.01000023   4.86000013  48.67000198
C    23.29000092   5.29999971  48.88999939
C    23.68000031   5.75999975  50.17000198
C    22.69000053   5.98000002  51.11000061
C    21.31999969   5.69000006  50.84999847
C    17.15999985   4.67999983  50.19000244
C    16.47999954   5.09999990  51.37000275
C    15.10000038   5.13999987  51.42000198
C    25.09000015   6.09000015  50.59000015
H    25.47359276   5.39384890  51.33587646
H    20.45000076   6.44000006  52.75000000
H    19.45000076   4.01999998  48.52000427
H    21.75000000   4.41000032  47.70999908
H    24.03000069   5.17000008  48.09999847
H    22.92000008   6.43000031  52.06999969
H    14.63000107   5.47999954  52.34000397
H    25.76000023   6.11999989  49.72000122
H    25.06000137   7.13000011  50.93000031
S    13.89999962   3.88000011  47.87000275
C    11.18000031   4.07000017  48.47000122
C    12.48000050   4.09999990  48.92000198
C    12.84999943   4.56999969  50.21999741
C    11.78999996   4.84000015  51.06999969
C    10.44000053   4.63999987  50.68999863
C     9.42000008   4.90000010  51.63999939
C     8.11999989   4.69999981  51.25000000
C     7.83999968   4.23999977  49.93000031
C     8.75000000   4.02999973  48.93000031
C    10.10000038   4.19000006  49.36999893
C    14.28999996   4.69999981  50.35999680
C    15.00000000   4.32000017  49.19000244
C    16.39000130   4.30999994  49.08000183
C     6.37000036   3.98000002  49.66999817
H     5.98521948   4.53579426  48.81493378
H    11.10000038   3.91000009  47.39999771
H    11.98999977   5.14999962  52.09999847
H     9.71000004   5.10999966  52.67000198
H     7.31999969   4.76000023  51.97999954
H     8.56999969   3.52999973  47.97999954
H    16.86000061   3.97000027  48.15999985
H     5.72000027   4.15000010  50.54000092
H     6.21999979   2.91000009  49.47000122
