96

S    17.43000031   5.22000027  58.72000122
C    20.13000107   5.33999968  58.04999924
C    18.85000038   5.00999975  57.68000031
C    18.51000023   4.50000000  56.38000107
C    19.52000046   4.38000011  55.45000076
C    20.86000061   4.69999981  55.79000092
C    21.94000053   4.46999979  54.88999939
C    23.25000000   4.67000008  55.26000214
C    23.54000092   5.27999973  56.51000214
C    22.53999901   5.45000029  57.43999863
C    21.18000031   5.18000031  57.11000061
C    17.05999947   4.38000011  56.27999878
C    16.32999992   4.94999981  57.35000229
C    14.93999958   5.01999950  57.41000366
C    24.93999863   5.64000034  56.95000076
H    25.40168190   4.85869074  57.55374146
H    20.30999947   5.75000000  59.03999710
H    19.40000153   4.05000019  54.41999817
H    21.61000061   3.94000006  54.00000000
H    24.13999939   4.42999983  54.68999863
H    22.79999924   5.78000021  58.43999863
H    14.40000057   5.38999987  58.27999878
H    25.59999847   5.86999989  56.10000229
H    24.92000198   6.60000038  57.47000122
S    13.78999901   3.38000011  54.01000214
C    11.10000038   3.33999991  54.65000153
C    12.35999966   3.79999995  54.97000122
C    12.72999954   4.42999983  56.19999695
C    11.68000031   4.76999998  57.02999878
C    10.39000034   4.26000023  56.77000046
C     9.30999947   4.51000023  57.67000198
C     8.02999973   4.05000019  57.50999832
C     7.75000000   3.28999996  56.33999634
C     8.73000050   3.00999999  55.41999817
C    10.06000042   3.48000002  55.59999847
C    14.18000031   4.53000021  56.35000229
C    14.89999962   3.98999977  55.25000000
C    16.28999901   3.91999984  55.20999908
C     6.35999966   2.76999998  56.04999924
H     5.94634581   3.37621713  55.24408722
H    10.88999939   2.86000013  53.69999695
H    11.87999916   5.28999996  57.95999908
H     9.50000000   5.07000017  58.57999802
H     7.22000027   4.19000006  58.22000122
H     8.64000034   2.48000002  54.47000122
H    16.77999878   3.42000008  54.36999893
H     5.75999975   2.94999981  56.95000076
H     6.30000019   1.69000006  55.87999725
S    17.88999939   5.42000008  52.65999603
C    20.65000153   5.51999998  51.97000122
C    19.34999847   5.19000006  51.68000031
C    19.01000023   4.71000004  50.38000107
C    20.00999832   4.53000021  49.45000076
C    21.37000084   4.85000038  49.72000122
C    22.46999931   4.75000000  48.81999969
C    23.71999931   5.23999977  49.09999847
C    23.92999840   6.05999994  50.22999573
C    22.89999962   6.15999985  51.14999771
C    21.63999939   5.53999996  50.96000290
C    17.56999969   4.63000011  50.15999603
C    16.81999969   4.90000010  51.32999802
C    15.44000053   4.84000015  51.46999741
C    25.38000107   6.24000025  50.61999893
H    25.66508865   5.59854984  51.45388412
H    20.94000053   6.07999992  52.85999680
H    19.71999931   4.18000031  48.46000290
H    22.23999977   4.30000019  47.85999680
H    24.53000069   4.76999998  48.53000259
H    23.05000114   6.34000015  52.21000290
H    14.93999958   5.17000008  52.37999725
H    25.94000053   6.11999989  49.68000031
H    25.46999931   7.28999996  50.93000031
S    14.32000065   4.03999996  47.76000214
C    11.57999992   3.84000015  48.40999985
C    12.89000034   4.03999996  48.80000305
C    13.27000046   4.42999983  50.13000107
C    12.28999996   4.61000013  51.07999802
C    10.93000031   4.35999966  50.76000214
C     9.89999962   4.44999981  51.73999786
C     8.59000015   4.21000004  51.43000031
C     8.23999977   4.01999998  50.06000137
C     9.19999981   3.96000004  49.08000183
C    10.59000015   4.11000013  49.38999939
C    14.70999908   4.57999992  50.31000137
C    15.42000008   4.42999983  49.09000015
C    16.80999947   4.42000008  49.00000000
C     6.84999990   3.58000016  49.68000031
H     6.39416933   4.18540001  48.89654160
H    11.35000038   3.38000011  47.45999908
H    12.53000069   4.96000004  52.08000183
H    10.14000034   4.86999989  52.70999908
H     7.78999996   4.19000006  52.16999817
H     8.96000004   3.61000013  48.08000183
H    17.22999954   4.17000008  48.02999878
H     6.23000050   3.55999994  50.59000015
H     6.84999990   2.51999998  49.38000107
