96

S    17.47999954   4.42999983  59.13999939
C    20.07999802   4.98000002  58.37999725
C    18.86000061   4.44999981  58.02000046
C    18.45999908   4.07999992  56.70000076
C    19.47000122   4.18000031  55.77000046
C    20.73999786   4.74000025  56.05999756
C    21.81999969   4.77999973  55.13000107
C    23.09000015   5.21000004  55.43000031
C    23.38000107   5.64000034  56.75000000
C    22.42000198   5.53999996  57.71999741
C    21.09000015   5.12000036  57.41000366
C    17.01000023   3.98000002  56.59000015
C    16.31999969   4.21000004  57.81000137
C    14.94999981   4.38000011  57.90000153
C    24.80999947   5.95000029  57.12999725
H    25.34144783   5.14219761  57.63310623
H    20.43000031   5.18000031  59.38999939
H    19.30999947   3.71000004  54.80999756
H    21.61999893   4.38000011  54.13999939
H    23.87000084   5.13999987  54.66999817
H    22.65999985   5.55999994  58.77999878
H    14.47000027   4.48999977  58.87000275
H    25.38999939   6.30999994  56.26999664
H    24.61999893   6.84000015  57.72999573
S    13.85000038   3.73000002  54.12000275
C    11.18000031   3.50000000  54.77000427
C    12.43999958   3.81999993  55.20000076
C    12.74000072   4.15999985  56.56000137
C    11.71000004   4.26999998  57.47000122
C    10.40999985   3.84999990  57.08000183
C     9.39000034   3.65000010  58.04999924
C     8.11999989   3.26999998  57.65999603
C     7.79999971   2.91000009  56.32999802
C     8.80000019   3.08999991  55.40000153
C    10.11999989   3.50000000  55.72000122
C    14.18000031   4.23999977  56.72999954
C    14.88999939   3.93000007  55.54999924
C    16.27000046   3.93000007  55.40000153
C     6.37000036   2.52999997  56.02000427
H     5.97196293   3.17680955  55.23814392
H    10.98000050   3.14000010  53.75999832
H    11.84999943   4.39000034  58.54000092
H     9.48000050   4.00999975  59.06999969
H     7.40000010   3.25999999  58.47000122
H     8.53999996   2.79999995  54.38000107
H    16.84000015   3.84000015  54.47999954
H     5.73999977   2.61000013  56.90999985
H     6.44000006   1.49000001  55.66999817
S    14.06999969   1.38999999  50.89000320
C    11.39999962   0.93999994  51.65999985
C    12.74000072   0.97000003  51.98999786
C    13.22000027   0.43000001  53.22000122
C    12.34000015  -0.02000000  54.19000244
C    10.98999977  -0.14000000  53.79000092
C    10.01999950  -0.59999996  54.72999954
C     8.67000008  -0.64999998  54.47999954
C     8.23999977  -0.08000001  53.25000000
C     9.07999992   0.27000001  52.22000122
C    10.47000027   0.34000003  52.54000092
C    14.67000008   0.55000001  53.34000015
C    15.22999954   1.19999993  52.22000122
C    16.54999924   1.63000000  52.14000320
C     6.76000023  -0.19999999  52.97000122
H     6.44743586   0.06994200  51.96127319
H    11.02000046   1.25000000  50.68999863
H    12.64000034  -0.56000000  55.08999634
H    10.25000000  -0.97000003  55.72999954
H     8.03999996  -1.28000009  55.10000229
H     8.73999977   0.59000003  51.24000168
H    16.94000053   2.27999997  51.35000229
H     6.48999977  -1.25000000  53.13999939
H     6.10000038   0.20999999  53.74000168
S    18.04999924   0.23000000  55.52999878
C    20.72999954   0.59999996  54.75999832
C    19.38999939   0.75999999  54.50000000
C    18.86999893   1.34000003  53.29999924
C    19.79999924   1.69000006  52.34000397
C    21.18999863   1.69000006  52.56000137
C    22.14999962   2.43000007  51.81999969
C    23.46999931   2.51999998  52.18999863
C    23.88999939   1.97000003  53.43999863
C    23.00000000   1.25000000  54.20999908
C    21.63999939   1.10000002  53.80000305
C    17.40999985   1.30999994  53.18999863
C    16.82999992   0.69000000  54.33000183
C    15.50000000   0.28999999  54.43999863
C    25.29999924   2.23000002  53.92000198
H    25.62773323   1.53890896  54.69658661
H    21.18000031   0.05000000  55.58000183
H    19.47999954   2.15000010  51.39999771
H    21.84000015   2.79000020  50.84000015
H    24.11000061   3.05999994  51.50000000
H    23.26999855   0.93000001  55.20999908
H    15.07999992  -0.12000000  55.35999680
H    25.22000122   3.25000000  54.29000092
H    26.00000000   2.23000002  53.06999969
