96

S    16.87999916   4.65999985  58.92000198
C    19.63000107   4.59999990  58.29000092
C    18.31999969   4.44999981  57.90000153
C    17.97999954   4.01999998  56.58000183
C    18.96000099   3.81000018  55.63000107
C    20.32999992   3.98999977  55.97000122
C    21.38999939   3.86000013  55.04000092
C    22.67000008   4.25000000  55.38000107
C    22.93000031   4.86999989  56.63000107
C    21.94999886   4.90999985  57.58999634
C    20.63999939   4.44000006  57.29999924
C    16.54000092   3.84000015  56.39999771
C    15.82999992   4.26000023  57.56000137
C    14.45000076   4.42000008  57.52999878
C    24.36000061   5.27999973  56.93999863
H    24.80318832   4.65095901  57.71200562
H    19.82999992   5.23000002  59.15000153
H    18.63000107   3.61999989  54.61000061
H    21.21000099   3.48000002  54.03999710
H    23.45000076   4.05999994  54.65999985
H    22.09000015   5.23999977  58.61999893
H    13.85000038   4.69999981  58.39000320
H    24.92000198   5.23999977  55.98999786
H    24.34000015   6.30999994  57.30999756
S    13.40999985   3.40999985  53.81000137
C    10.67999935   3.12999988  54.54999924
C    11.95000076   3.61999989  54.79999924
C    12.34000015   4.05999994  56.10000229
C    11.36999989   4.13000011  57.08000183
C    10.01000023   3.78999996  56.83000183
C     8.97999954   4.00999975  57.77999878
C     7.65999985   3.81000018  57.43000031
C     7.37999964   3.07999992  56.24000168
C     8.34000015   2.86000013  55.27000046
C     9.68000031   3.24000001  55.54000092
C    13.78000069   4.13000011  56.32999802
C    14.48999977   3.68000007  55.20000076
C    15.85999966   3.44000006  55.25000000
C     5.92999983   2.77999997  55.97000122
H     5.48880100   3.25678015  55.09471512
H    10.36000061   2.84999990  53.54999924
H    11.72000027   4.19000006  58.11000061
H     9.19000053   4.51000023  58.72000122
H     6.84999990   4.00999975  58.11999893
H     8.11999989   2.42000008  54.29999924
H    16.46999931   3.32999992  54.36000061
H     5.40000010   3.03999996  56.90000153
H     5.78999996   1.71000004  55.77000046
S    17.40999985   5.26999998  52.81999969
C    20.10999870   5.12000036  52.29000092
C    18.82999992   4.92000008  51.83000183
C    18.55999947   4.46999979  50.48999786
C    19.61000061   4.40000010  49.59999847
C    20.93000031   4.59999990  50.06000137
C    21.98999786   4.53999996  49.09999847
C    23.26000023   4.94999981  49.43999863
C    23.55999947   5.25000000  50.79000092
C    22.57999802   5.22000027  51.76000214
C    21.21999931   4.97000027  51.42000198
C    17.11000061   4.46000004  50.31999969
C    16.36000061   4.90000010  51.44000244
C    14.98999977   5.14999962  51.38000107
C    24.89000130   5.84000015  51.20999908
H    25.50226212   5.17790318  51.82226181
H    20.15999985   5.46000004  53.31999969
H    19.48999977   4.21000004  48.53000259
H    21.73000145   4.36999989  48.06000137
H    24.01000023   5.26999998  48.72000122
H    22.73999977   5.65999985  52.74000168
H    14.48999977   5.31000042  52.32999802
H    25.52999878   6.11999989  50.35999680
H    24.73999977   6.74000025  51.81999969
S    13.94000053   3.88000011  47.76000214
C    11.28999901   3.51999998  48.50999832
C    12.55000019   3.96000004  48.86000061
C    12.86999893   4.51000023  50.13999939
C    11.82999992   4.61999989  51.04000092
C    10.51000023   4.23000002  50.72000122
C     9.44999981   4.48000002  51.63999939
C     8.21000004   3.96000004  51.33999634
C     7.92000008   3.44000006  50.05000305
C     8.89000034   3.30000019  49.09000015
C    10.21999931   3.65999985  49.43000031
C    14.30999947   4.69999981  50.25000000
C    15.03000069   4.39000034  49.06999969
C    16.40999985   4.23000002  49.13999939
C     6.48999977   3.05999994  49.73999786
H     6.07038927   3.61473918  48.90077591
H    11.21999931   3.09999990  47.50999832
H    11.98999977   5.03999996  52.02999878
H     9.64999962   5.07999992  52.51999664
H     7.42999983   3.97000027  52.09999847
H     8.69999981   2.96999979  48.06999969
H    16.88999939   4.05999994  48.18000031
H     5.88000011   3.19999981  50.63999939
H     6.48000002   1.99000001  49.48999786
