96

S    17.07999992   4.73000002  58.68999863
C    19.82999992   4.55000019  58.09999847
C    18.52000046   4.35999966  57.70999908
C    18.22000122   3.94000006  56.38000107
C    19.19999886   3.86999989  55.40000153
C    20.52999878   4.09999990  55.80999756
C    21.65999985   4.15999985  54.93999863
C    22.95000076   4.44999981  55.31000137
C    23.26000023   4.67999983  56.66999817
C    22.20999908   4.80999994  57.55000305
C    20.86999893   4.53000021  57.14000320
C    16.77999878   4.01999998  56.18999863
C    16.00000000   4.33999968  57.32999802
C    14.63999939   4.63000011  57.32999802
C    24.67000008   5.07000017  57.04000092
H    25.11263657   4.50599527  57.86101913
H    20.10000038   4.81999969  59.10999680
H    18.89000130   3.65000010  54.38000107
H    21.60000038   3.95000005  53.87000275
H    23.72999954   4.21000004  54.59000015
H    22.29999924   5.17000008  58.56999969
H    14.01000023   4.90999985  58.16999817
H    25.30999947   4.92000008  56.16000366
H    24.72999954   6.12999964  57.31999969
S    13.67000008   3.37000012  53.68999863
C    10.92000008   3.25000000  54.26000214
C    12.18999958   3.61999989  54.64000320
C    12.50000000   4.07000017  55.96000290
C    11.42000008   4.28999996  56.79999924
C    10.06999969   4.09999990  56.40999603
C     8.93999958   4.39000034  57.22999954
C     7.65999985   4.00000000  56.90000153
C     7.46999979   3.30999994  55.68000031
C     8.48999977   3.16000009  54.77000427
C     9.81999969   3.56999993  55.10000229
C    13.92000008   4.28999996  56.18000031
C    14.68999958   3.84999990  55.06999969
C    16.07999992   3.79999995  55.00000000
C     6.05999994   2.82999992  55.40000153
H     5.66823673   3.44257522  54.58798218
H    10.77999973   2.73000002  53.31999969
H    11.65999985   4.76999998  57.74000168
H     9.13000011   4.74000025  58.23999786
H     6.81999969   4.30000019  57.51999664
H     8.32999992   2.61999989  53.85000229
H    16.53000069   3.54999995  54.03999710
H     5.53999996   2.96000004  56.36000061
H     6.11000013   1.77999997  55.11000061
S    14.07999992   1.48000002  50.76000214
C    11.39999962   0.93000001  51.40999603
C    12.74000072   0.83999997  51.72999954
C    13.22999954   0.24000001  52.94000244
C    12.28999996  -0.23000000  53.83999634
C    10.92000008  -0.16000001  53.50000000
C     9.96000004  -0.52999997  54.48999786
C     8.60999966  -0.41999999  54.25000000
C     8.11999989   0.07000000  53.01000214
C     9.01000023   0.48999998  52.04999924
C    10.40999985   0.45000002  52.29999924
C    14.67000008   0.39999998  53.08000183
C    15.29000092   1.08000004  52.00000000
C    16.63999939   1.36999989  51.88999939
C     6.65000010   0.20999999  52.69000244
H     6.25147963  -0.35931480  51.85026169
H    11.13999939   1.38999999  50.45999908
H    12.51000023  -0.64999998  54.81999969
H    10.27999973  -0.65999997  55.52000046
H     7.85000038  -0.64000005  54.99000168
H     8.61999989   1.02999997  51.18999863
H    17.07999992   1.88999999  51.04999924
H     6.09000015  -0.16000001  53.55999756
H     6.44999981   1.28000009  52.56000137
S    17.97999954  -0.04000000  55.38999939
C    20.66999817   0.63000000  54.75000000
C    19.31999969   0.65999997  54.47000122
C    18.82999992   1.23000002  53.25000000
C    19.71999931   1.66999996  52.28000259
C    21.11000061   1.71000004  52.54000092
C    22.10000038   2.31999993  51.72000122
C    23.45000076   2.30999994  51.97999954
C    23.85999870   1.71000004  53.20000076
C    22.95000076   1.23000002  54.12000275
C    21.55999947   1.21000004  53.81000137
C    17.39999962   1.07000005  53.02999878
C    16.79999924   0.50999999  54.18000031
C    15.47000027   0.09000000  54.18000031
C    25.31999969   1.72000003  53.61000061
H    25.57013130   1.10538697  54.47474670
H    21.05999947   0.19999999  55.66999817
H    19.34000015   2.07999992  51.35000229
H    21.73000145   2.89999986  50.87999725
H    24.11000061   3.05999994  51.56000137
H    23.22999954   0.82999998  55.08999634
H    15.13000011  -0.48000002  55.05000305
H    25.48000145   2.79000020  53.77999878
H    25.88000107   1.41000009  52.71999741
