96

S    16.86000061   5.18000031  58.87000275
C    19.61000061   5.01999950  58.30999756
C    18.30999947   4.76000023  57.94000244
C    17.90999985   4.38000011  56.62000275
C    18.92000008   4.11999989  55.70999908
C    20.25000000   4.48000002  56.02000427
C    21.31999969   4.48999977  55.07999802
C    22.63000107   4.82999992  55.30000305
C    22.93999863   5.32999992  56.59000015
C    21.97000122   5.36999989  57.56999969
C    20.62999916   4.94000006  57.32999802
C    16.47999954   4.39000034  56.35000229
C    15.78999996   4.85000038  57.50000000
C    14.40000057   4.99000025  57.50000000
C    24.33000183   5.75999975  57.00000000
H    24.74904060   5.00714922  57.66762543
H    19.69000053   5.55999994  59.25000000
H    18.72999954   3.93000007  54.65000153
H    21.09000015   4.15999985  54.06999969
H    23.35000038   4.84000015  54.48999786
H    22.20999908   5.77000046  58.54999924
H    13.82999992   5.27999973  58.36999893
H    25.00999832   5.86000013  56.13999939
H    24.13999939   6.60000038  57.67000198
S    13.30000019   3.42000008  54.01000214
C    10.67999935   3.01999998  54.84000397
C    11.92000008   3.56999993  55.12000275
C    12.23999977   4.35999966  56.26999664
C    11.17000008   4.59999990  57.09999847
C     9.89999962   4.02999973  56.88000107
C     8.78000069   4.19000006  57.74000168
C     7.46999979   3.82999992  57.48000336
C     7.26000023   3.07999992  56.29000092
C     8.30000019   2.68000007  55.48999786
C     9.61000061   3.17000008  55.76000214
C    13.68999958   4.48000002  56.40999603
C    14.40000057   3.96000004  55.28999710
C    15.78999996   3.96000004  55.21999741
C     5.92999983   2.47000003  55.93999863
H     5.43970680   3.24452066  55.35022736
H    10.44000053   2.77999997  53.81000137
H    11.38000011   5.09000015  58.04999924
H     8.92000008   4.79999971  58.62999725
H     6.76000023   3.93000007  58.29000092
H     8.10999966   2.16999984  54.54999924
H    16.32999992   3.63999987  54.33000183
H     5.26999998   2.17999983  56.77000046
H     6.19000006   1.64000010  55.27000046
S    17.48999977   5.36999989  52.88000107
C    20.13000107   5.65000010  52.09000015
C    18.88000107   5.17000008  51.79000092
C    18.65999985   4.53000021  50.52999878
C    19.69000053   4.40000010  49.61000061
C    20.97999954   4.90999985  49.88999939
C    22.10000038   4.67999983  49.02999878
C    23.36999893   4.92000008  49.47999954
C    23.55999947   5.63000011  50.70000076
C    22.50999832   5.95000029  51.52000046
C    21.18999863   5.53999996  51.16000366
C    17.21999931   4.48000002  50.38999939
C    16.46000099   4.98000002  51.47999573
C    15.06999969   4.96000004  51.45000076
C    25.00000000   5.96000004  51.03000259
H    25.35624123   5.41851473  51.90634918
H    20.31999969   6.12999964  53.04999924
H    19.52000046   3.93000007  48.63999939
H    21.93000031   4.32999992  48.02000046
H    24.21999931   4.67000008  48.85000229
H    22.56999969   6.40999985  52.50999832
H    14.48999977   5.03999996  52.36999893
H    25.62000084   5.82000017  50.13999939
H    25.09000015   7.02000046  51.32999802
S    14.06000042   3.96000004  47.81000137
C    11.33999920   3.70000005  48.41999817
C    12.60000038   4.05000019  48.81999969
C    12.88000011   4.48999977  50.15999603
C    11.84999943   4.53000021  51.07999802
C    10.52999973   4.15000010  50.75000000
C     9.44999981   4.26999998  51.65999985
C     8.14000034   4.09999990  51.29000092
C     7.90000010   3.67000008  49.95999908
C     8.93999958   3.42999983  49.09000015
C    10.29000092   3.74000025  49.38000107
C    14.32000065   4.69999981  50.30000305
C    15.11000061   4.32000017  49.19000244
C    16.48999977   4.13000011  49.25000000
C     6.50000000   3.30999994  49.51000214
H     6.16519928   3.83000922  48.61244965
H    11.13999939   3.28000021  47.43999863
H    11.89000034   4.92999983  52.09000015
H     9.75000000   4.72000027  52.60000229
H     7.32999992   4.36999989  51.97000122
H     8.71000004   3.10999990  48.08000183
H    16.95999908   3.61000013  48.41999817
H     5.77000046   3.42000008  50.31999969
H     6.40999985   2.25999999  49.19000244
