96

S    17.10000038   4.94000006  58.92000198
C    19.84000015   4.90999985  58.25000000
C    18.54999924   4.53999996  57.97999954
C    18.23999977   3.96000004  56.70000076
C    19.22000122   3.60000014  55.79999924
C    20.55000114   4.00999975  56.05999756
C    21.55999947   3.93000007  55.05000305
C    22.82999992   4.34999990  55.35999680
C    23.19999886   4.90999985  56.60999680
C    22.19000053   5.14999962  57.50999832
C    20.86999893   4.67000008  57.29999924
C    16.80999947   3.79999995  56.51000214
C    16.07999992   4.34999990  57.58999634
C    14.68999958   4.46000004  57.52999878
C    24.61999893   5.36999989  56.84999847
H    25.10904503   4.72502518  57.58002472
H    20.06999969   5.69999981  58.95999908
H    18.96000099   3.25999999  54.79999924
H    21.31000137   3.51999998  54.08000183
H    23.65999985   4.09999990  54.69999695
H    22.37999916   5.60999966  58.47000122
H    14.13000011   4.75000000  58.40999985
H    25.17999840   5.36000013  55.90999985
H    24.54000092   6.43000031  57.09999847
S    13.75000000   3.22000003  53.89999771
C    11.02000046   3.14000010  54.48999786
C    12.28999996   3.50000000  54.87999725
C    12.56000042   4.09999990  56.14999771
C    11.47999954   4.30000019  56.98999786
C    10.15999985   3.96000004  56.62000275
C     9.06999969   4.07999992  57.52999878
C     7.76000023   3.81999993  57.19999695
C     7.49000025   3.40999985  55.86999893
C     8.52999973   3.22000003  54.99000168
C     9.89999962   3.42999983  55.31000137
C    13.99000072   4.07999992  56.38000107
C    14.78000069   3.61000013  55.28999710
C    16.17000008   3.51000023  55.30000305
C     6.05000019   3.12999988  55.52999878
H     5.56712055   3.90402675  54.93350220
H    10.90999985   2.64999986  53.53000259
H    11.71000004   4.73000002  57.95999908
H     9.35000038   4.38000011  58.54000092
H     6.91999960   3.96000004  57.87000275
H     8.38000011   2.56999993  54.13000107
H    16.69000053   3.30000019  54.36999893
H     5.53999996   2.99000001  56.49000168
H     5.89999962   2.25000000  54.87999725
S    13.86000061   1.43000007  51.05999756
C    11.17000008   0.88999999  51.60999680
C    12.50000000   0.71000004  51.93000031
C    12.94999981   0.03000000  53.09999847
C    11.97000027  -0.43000001  53.96999741
C    10.59999943  -0.31000000  53.66000366
C     9.55000019  -0.79999995  54.47999954
C     8.23000050  -0.56000000  54.19000244
C     7.79999971   0.11000000  53.01000214
C     8.78999996   0.57999998  52.18000031
C    10.17000008   0.35999998  52.45999908
C    14.37999916   0.19000000  53.34000015
C    15.03000069   0.81000000  52.25000000
C    16.38000107   1.11000001  52.27000427
C     6.34000015   0.39999998  52.77000046
H     5.93478632   0.05876729  51.81739044
H    10.93999958   1.44999993  50.70000076
H    12.20999908  -0.82000005  54.95999908
H     9.72000027  -1.19999993  55.47999954
H     7.49000025  -0.86000001  54.93000031
H     8.60999966   1.07000005  51.23000336
H    16.95999908   1.52999997  51.45000076
H     5.78000021  -0.06000000  53.60000229
H     6.15000010   1.48000002  52.84000015
S    17.64999962  -0.54000002  55.65999985
C    20.30999947   0.27000001  55.15999603
C    18.98999977   0.23000000  54.77000427
C    18.55999947   0.92000002  53.59000397
C    19.52000046   1.42000008  52.72999573
C    20.89999962   1.35000002  53.02999878
C    21.94000053   1.84000003  52.18999863
C    23.28000069   1.62000000  52.38999939
C    23.62999916   0.88000000  53.54000092
C    22.69000053   0.45000002  54.43999863
C    21.31000137   0.75000000  54.27000046
C    17.13000107   0.75000000  53.40000153
C    16.50000000  -0.01000000  54.41999817
C    15.13000011  -0.25000000  54.43000031
C    25.06999969   0.46000001  53.75000000
H    25.40420151   0.88664120  54.69572067
H    20.58000183  -0.29999998  56.04999924
H    19.25000000   1.74000001  51.72999954
H    21.67000008   2.46000004  51.33999634
H    23.92999840   1.84000003  51.53999710
H    22.95000076  -0.11000000  55.34000015
H    14.68999958  -0.83999997  55.22999573
H    25.76000023   0.64999998  52.91999817
H    25.19000053  -0.63000000  53.76999664
