96

S    17.18000031   4.92999983  58.92000198
C    19.89999962   4.61999989  58.29000092
C    18.57999992   4.51000023  57.91999817
C    18.17000008   4.09000015  56.60999680
C    19.13999939   3.81999993  55.65999985
C    20.50000000   4.03999996  55.97000122
C    21.53000069   4.02999973  54.98000336
C    22.81999969   4.40000010  55.27000046
C    23.15999985   4.84000015  56.56999969
C    22.25000000   4.69000006  57.58999634
C    20.89999962   4.32000017  57.31999969
C    16.72999954   4.19000006  56.45000076
C    16.03000069   4.59000015  57.61000061
C    14.65999985   4.81999969  57.58999634
C    24.53000069   5.46000004  56.79999924
H    25.00763702   4.98236370  57.65546799
H    20.13000107   5.05999994  59.25000000
H    18.72999954   3.79999995  54.65000153
H    21.18999863   3.79999995  53.97999573
H    23.57000160   4.41000032  54.47999954
H    22.42000198   4.88000011  58.64999771
H    14.21000004   5.21000004  58.50999832
H    25.15999985   5.36000013  55.90999985
H    24.38999939   6.51000023  57.05999756
S    13.52000046   3.52999973  54.00000000
C    10.81999969   3.79999995  54.58000183
C    12.11999989   4.01999998  54.97000122
C    12.46000099   4.59000015  56.25000000
C    11.43000031   4.69000006  57.15999985
C    10.13000011   4.23000002  56.84999847
C     9.03999996   4.25000000  57.77000046
C     7.76000023   3.89999986  57.38999939
C     7.44000006   3.45999980  56.07999802
C     8.42000008   3.55999994  55.13000107
C     9.77000046   3.81000018  55.52000046
C    13.89999962   4.57999992  56.44000244
C    14.57999992   4.02999973  55.31999969
C    15.97000027   3.93000007  55.30000305
C     6.00000000   3.16000009  55.70999908
H     5.52980375   3.82254887  54.98333359
H    10.60999966   3.38000011  53.60000229
H    11.63000011   4.88999987  58.20999908
H     9.31999969   4.61000013  58.75999832
H     7.07000017   4.13000011  58.20000076
H     8.18000031   3.38999987  54.08000183
H    16.42000008   3.45000005  54.43000031
H     5.40999985   3.12999988  56.63000107
H     6.11000013   2.13000011  55.33000183
S    13.99000072   1.70000005  50.93000031
C    11.33999920   1.19999993  51.56000137
C    12.67000008   1.00999999  51.88999939
C    13.02000046   0.34999999  53.11000061
C    12.05999947   0.05000000  54.06000137
C    10.70000076   0.31000000  53.79000092
C     9.61000061  -0.19000000  54.56999969
C     8.30999947   0.01000000  54.15999985
C     7.96999979   0.81000000  53.04000092
C     8.98999977   1.18000007  52.19999695
C    10.34000015   0.90000004  52.52999878
C    14.46000004   0.48000002  53.27000046
C    15.06999969   1.28999996  52.28000259
C    16.43000031   1.59999990  52.29000092
C     6.53999996   1.16999996  52.70000076
H     6.07519770   0.60508639  51.89196014
H    11.11999989   1.53999996  50.56000137
H    12.35000038  -0.35999998  55.01999664
H     9.77000046  -0.82000005  55.44000244
H     7.55999994  -0.56000000  54.69999695
H     8.71000004   1.53999996  51.20999908
H    16.95999908   2.07999992  51.47999573
H     5.88999987   1.00999999  53.57999802
H     6.51000023   2.24000001  52.45999908
S    17.73999977  -0.04000000  55.68000031
C    20.43000031   0.52999997  55.06999969
C    19.09000015   0.68000007  54.77000427
C    18.63999939   1.35000002  53.59000397
C    19.59000015   1.75999999  52.68000031
C    20.96999931   1.51999998  52.93000031
C    22.01000023   1.98000002  52.08000183
C    23.34000015   1.75000000  52.36000061
C    23.72999954   1.08000004  53.54999924
C    22.79999924   0.65999997  54.45999908
C    21.42999840   0.92000002  54.15000153
C    17.20999908   1.19000006  53.36999893
C    16.59000015   0.46000001  54.41999817
C    15.24000072   0.13000000  54.38000107
C    25.20000076   0.82999998  53.79000092
H    25.56375504   1.36493230  54.66728592
H    20.69999886  -0.02000000  55.96000290
H    19.29000092   2.20000005  51.72999954
H    21.70999908   2.68000007  51.30000305
H    24.04000092   2.11999989  51.60999680
H    23.05999947   0.07000000  55.34000015
H    14.78999996  -0.27000001  55.27999878
H    25.79000092   1.25000000  52.95999908
H    25.38999939  -0.25000000  53.87000275
