96

S    17.38000107   5.19999981  58.66000366
C    20.00999832   5.53999996  57.80000305
C    18.72999954   5.14999962  57.50000000
C    18.37000084   4.57999992  56.23000336
C    19.42000008   4.46000004  55.34000015
C    20.79000092   4.69999981  55.61999893
C    21.87999916   4.57999992  54.72000122
C    23.18000031   4.85000038  55.11000061
C    23.44000053   5.44000053  56.37000275
C    22.39000130   5.71000004  57.22999954
C    21.07999992   5.26999998  56.90999985
C    16.94000053   4.34999990  56.18999863
C    16.26000023   4.63000011  57.39999771
C    14.88000011   4.63000011  57.51999664
C    24.84999847   5.78000021  56.79000092
H    25.19090652   5.07687902  57.54993820
H    20.30999947   5.88999987  58.79000092
H    19.26000023   4.19000006  54.29999924
H    21.64999962   4.23000002  53.72000122
H    23.85000038   4.55999994  54.31000137
H    22.50999832   6.15000010  58.22000122
H    14.40999985   5.03000021  58.41999817
H    25.48000145   5.55999994  55.91999817
H    24.89000130   6.84000015  57.06999969
S    13.63000011   4.03999996  53.85000229
C    10.93000031   3.67000008  54.58000183
C    12.23000050   3.97000027  54.93999863
C    12.64000034   4.26999998  56.26999664
C    11.64999962   4.42999983  57.22000122
C    10.29000092   4.21000004  56.90999985
C     9.26000023   4.23999977  57.90000153
C     8.00000000   3.75999975  57.63999939
C     7.64999962   3.38999987  56.31000137
C     8.61999989   3.33999991  55.33000183
C     9.92999935   3.84999990  55.56999969
C    14.09000015   4.32000017  56.40999603
C    14.78999996   4.09000015  55.20000076
C    16.17000008   3.98999977  55.06999969
C     6.32999992   2.71000004  56.04000092
H     5.79145288   3.35483909  55.34555817
H    10.65999985   3.14000010  53.67000198
H    12.01000023   4.61999989  58.22999954
H     9.53999996   4.48000002  58.92000198
H     7.23999977   3.79999995  58.40999985
H     8.47999954   2.79999995  54.40000153
H    16.56999969   3.86999989  54.06999969
H     5.80999947   2.61000013  57.00000000
H     6.48000002   1.70000005  55.63999939
S    13.99000072   1.94000006  51.09000397
C    11.36000061   1.19999993  51.70999908
C    12.69999981   1.12000000  52.00000000
C    13.12999916   0.45000002  53.18999863
C    12.25000000  -0.09999999  54.09999847
C    10.86999989  -0.01000000  53.77999878
C     9.85999966  -0.43000001  54.69999695
C     8.51000023  -0.28000000  54.47999954
C     8.10999966   0.31000000  53.25000000
C     9.01000023   0.76999998  52.31999969
C    10.40999985   0.62000000  52.56999969
C    14.55999947   0.71000004  53.31999969
C    15.19999981   1.46000004  52.29999924
C    16.54000092   1.82999992  52.36000061
C     6.65999985   0.61000001  52.94000244
H     6.28280449   0.02641511  52.10020828
H    11.11999989   1.85000002  50.86999893
H    12.63000011  -0.39999998  55.06999969
H    10.21000004  -0.83999997  55.65000153
H     7.76999998  -0.61000001  55.20000076
H     8.64999962   1.23000002  51.40999603
H    16.93000031   2.27999997  51.45000076
H     5.96000004   0.32999998  53.74000168
H     6.46000004   1.65000010  52.67000198
S    17.84000015   0.23000000  55.73999786
C    20.51000214   0.64999998  55.07999802
C    19.19000053   0.92000002  54.80999756
C    18.77000046   1.47000003  53.55999756
C    19.73999977   1.72000003  52.61000061
C    21.11000061   1.58000004  52.90000153
C    22.11000061   2.06999993  52.00000000
C    23.42000008   2.17999983  52.39999771
C    23.81000137   1.57000005  53.61999893
C    22.89999962   1.08000004  54.52000046
C    21.52000046   1.03999996  54.16999817
C    17.31999969   1.43000007  53.44999695
C    16.67000008   0.71000004  54.48999786
C    15.34000015   0.29999998  54.40000153
C    25.27000046   1.35000002  53.95999908
H    25.46244240   1.68499398  54.97923660
H    20.88000107   0.43000001  56.07999802
H    19.40000153   2.03999996  51.62000275
H    21.75000000   2.72000027  51.20999908
H    24.25000000   2.53999996  51.79999924
H    23.29999924   0.59999996  55.41999817
H    14.94999981  -0.41999999  55.11000061
H    25.88000107   1.94999993  53.27999878
H    25.52000046   0.29999998  53.77999878
