96

S    17.61999893   4.97000027  58.92000198
C    20.27000046   4.92000008  58.15000153
C    18.96000099   4.67000008  57.80000305
C    18.54999924   4.28000021  56.47999573
C    19.55999947   4.09000015  55.54999924
C    20.90999985   4.23000002  55.94999695
C    21.97999954   4.11999989  55.01999664
C    23.28000069   4.53999996  55.19000244
C    23.61999893   5.05000019  56.46999741
C    22.65999985   5.13000011  57.45999908
C    21.34000015   4.65000010  57.25999832
C    17.10000038   4.17000008  56.44000244
C    16.45000076   4.57999992  57.63000107
C    15.11000061   4.92999983  57.65999603
C    25.03000069   5.44000053  56.86000061
H    25.35729980   4.91347313  57.75651932
H    20.48000145   5.29999971  59.15000153
H    19.40000153   3.88999987  54.48999786
H    21.78999901   3.68999982  54.03999710
H    24.04999924   4.32999992  54.47000122
H    23.00000000   5.72000027  58.30999756
H    14.72000027   5.44000053  58.53000259
H    25.72000122   5.18000031  56.04999924
H    25.03000069   6.51999998  57.08000183
S    13.78000069   3.61999989  54.18000031
C    11.13000011   4.17000008  54.68000031
C    12.43000031   4.30999994  55.10000229
C    12.86999893   4.69999981  56.40999603
C    11.82000065   4.92000008  57.28000259
C    10.46000004   4.77999973  56.90000153
C     9.43000031   4.85000038  57.88000107
C     8.14999962   4.42000008  57.61000061
C     7.76999998   4.00000000  56.31000137
C     8.71000004   4.01999998  55.31999969
C    10.06000042   4.41000032  55.56999969
C    14.30999947   4.61000013  56.55000305
C    14.96999931   4.07000017  55.41999817
C    16.32999992   3.78999996  55.34000015
C     6.44000006   3.35000014  56.00999832
H     5.87147188   4.02512741  55.37040710
H    11.03999996   3.51999998  53.81000137
H    12.05999947   5.19000006  58.30999756
H     9.71000004   5.14999962  58.88999939
H     7.40999985   4.42000008  58.40000153
H     8.47000027   3.68000007  54.31000137
H    16.79000092   3.40999985  54.43000031
H     5.91000032   3.08999991  56.93999863
H     6.67000008   2.39999986  55.51000214
S    17.76000023   5.07999992  52.70999908
C    20.36000061   5.23000002  51.84000015
C    19.07999992   4.81999969  51.55000305
C    18.60000038   4.44000006  50.26000214
C    19.45000076   4.46999979  49.16999817
C    20.78000069   4.86999989  49.43999863
C    21.73000145   4.79999971  48.37999725
C    23.02999878   5.10999966  48.72000122
C    23.48999977   5.58000040  49.98000336
C    22.56999969   5.73000002  50.98999786
C    21.25000000   5.28999996  50.72999954
C    17.13999939   4.42000008  50.22999573
C    16.53000069   4.81999969  51.45000076
C    15.17000008   5.09999990  51.52999878
C    24.94999886   5.92000008  50.21999741
H    25.33453941   5.29334116  51.02468872
H    20.52000046   5.65999985  52.81999969
H    19.15999985   4.03999996  48.22000122
H    21.51000023   4.32000017  47.43000031
H    23.77000046   4.99000025  47.94000244
H    22.79999924   6.01000023  52.02000046
H    14.77000046   5.35000038  52.50999832
H    25.45000076   5.79999971  49.25000000
H    25.05000114   6.97000027  50.54000092
S    13.82999992   4.13999987  47.88999939
C    11.23999977   4.23999977  48.66000366
C    12.53999901   4.41000032  49.08000183
C    12.89000034   4.82999992  50.40000153
C    11.87000084   5.00999975  51.31000137
C    10.51000023   4.80999994  50.97000122
C     9.40999985   5.07000017  51.84000015
C     8.10999966   5.03999996  51.39999771
C     7.86000013   4.48000002  50.13000107
C     8.85999966   4.23000002  49.20999908
C    10.21000004   4.44000006  49.61000061
C    14.34999943   4.90000010  50.41999817
C    14.96999931   4.50000000  49.20999908
C    16.34000015   4.33999968  49.09000015
C     6.43000031   4.07000017  49.85000229
H     5.94883299   4.64315510  49.05749130
H    10.98000050   3.88000011  47.67000198
H    12.20999908   5.40999985  52.27000427
H     9.43000031   5.19000006  52.91999817
H     7.28999996   5.28999996  52.08000183
H     8.61999989   3.86999989  48.20999908
H    16.81999969   4.11000013  48.13000107
H     5.71000004   4.15000010  50.66999817
H     6.48000002   2.99000001  49.65999985
