96

S    17.40999985   4.65999985  58.87000275
C    20.10999870   5.15999985  58.16999817
C    18.81999969   4.84000015  57.81999969
C    18.47999954   4.48999977  56.47999573
C    19.45999908   4.53000021  55.50000000
C    20.81000137   4.79999971  55.80999756
C    21.87999916   4.78999996  54.86999893
C    23.19000053   5.03999996  55.20999908
C    23.45999908   5.33999968  56.58000183
C    22.47999954   5.35000038  57.54000092
C    21.11999893   5.18000031  57.16999817
C    17.04000092   4.32999992  56.29000092
C    16.31000137   4.53000021  57.48000336
C    14.92000008   4.55999994  57.54000092
C    24.86000061   5.75999975  56.97999954
H    25.26732445   5.18116999  57.80894089
H    20.35000038   5.45000029  59.19000244
H    19.29999924   4.09999990  54.51000214
H    21.70999908   4.67000008  53.81000137
H    23.97999954   4.98000002  54.47999954
H    22.65999985   5.61999989  58.57999802
H    14.37000084   4.90999985  58.40999985
H    25.46999931   5.55000019  56.09000397
H    24.87999916   6.84999990  57.12999725
S    13.94000053   3.65999985  53.75000000
C    11.21000099   3.38999987  54.47999954
C    12.50000000   3.74000025  54.79000092
C    12.82999992   4.28999996  56.07999802
C    11.79999924   4.51999998  56.97000122
C    10.44000053   4.32999992  56.63000107
C     9.39999962   4.30000019  57.58999634
C     8.10999966   3.91000009  57.31999969
C     7.82000017   3.33999991  56.04999924
C     8.82999992   3.25000000  55.12000275
C    10.15999985   3.70000005  55.37000275
C    14.26000023   4.36999989  56.31999969
C    14.96999931   4.17000008  55.11000061
C    16.36000061   4.18000031  55.07999802
C     6.40999985   2.89000010  55.75000000
H     5.81770563   3.61074424  55.18624878
H    11.05000019   2.73000002  53.61999893
H    12.05000019   4.69999981  58.02000046
H     9.59999943   4.44999981  58.64999771
H     7.36999989   4.00999975  58.11000061
H     8.61999989   2.79000020  54.15999985
H    16.87000084   3.84000015  54.18000031
H     5.93999958   2.79000020  56.73999786
H     6.43000031   1.93000007  55.20999908
S    14.01000023   1.67999995  50.89000320
C    11.39999962   1.08000004  51.31000137
C    12.69999981   0.74000001  51.63000107
C    13.19000053   0.14000000  52.83000183
C    12.20000076  -0.39000002  53.62999725
C    10.82999992  -0.25999999  53.30999756
C     9.78999996  -0.56999999  54.22999954
C     8.46000004  -0.41999999  53.90999603
C     8.07999992   0.25999999  52.72999573
C     9.06000042   0.79999995  51.91999817
C    10.42000008   0.45000002  52.11999893
C    14.60000038   0.37000000  53.13000107
C    15.19000053   1.13999999  52.09000015
C    16.53000069   1.50999999  52.11000061
C     6.61999989   0.57999998  52.50999832
H     6.25716162   0.19581810  51.55665970
H    11.19999981   1.95999992  50.70999908
H    12.38000011  -0.82000005  54.61000061
H     9.96999931  -1.00999999  55.20999908
H     7.65999985  -0.63000000  54.61999893
H     8.85999966   1.48000002  51.09000397
H    17.11000061   2.02999997  51.35000229
H     6.11999989   0.11000000  53.36999893
H     6.44000006   1.65000010  52.64999771
S    17.64999962   0.28999999  55.76000214
C    20.36999893   0.75999999  55.20000076
C    19.04999924   0.88000000  54.84000397
C    18.60000038   1.51999998  53.63999939
C    19.60000038   1.93000007  52.77999878
C    20.97999954   1.89999998  53.09000015
C    22.03000069   2.27999997  52.19999695
C    23.36999893   2.11999989  52.45999908
C    23.75000000   1.54999995  53.69999695
C    22.76000023   1.04999995  54.51000214
C    21.35999870   1.21000004  54.29000092
C    17.19000053   1.29999995  53.31999969
C    16.54000092   0.71999997  54.43999863
C    15.26999950   0.17000002  54.34999847
C    25.20000076   1.28999996  54.02999878
H    25.63284302   1.81508601  54.88148880
H    20.63999939   0.17999999  56.07999802
H    19.37999916   2.13000011  51.73999786
H    21.76000214   2.68000007  51.23000336
H    24.13000107   2.46000004  51.76000214
H    23.01000214   0.35999998  55.30000305
H    14.82999992  -0.32999998  55.20999908
H    25.76999855   1.54999995  53.13000107
H    25.36999893   0.23000000  54.27000046
