96

S    17.64000130   4.76999998  58.93000031
C    20.31999969   4.88000011  58.27999878
C    19.04000092   4.61000013  57.84999847
C    18.67000008   4.21000004  56.52000046
C    19.72999954   4.17000008  55.63000107
C    21.05999947   4.57999992  55.89000320
C    22.14999962   4.51000023  54.98000336
C    23.43000031   4.73000002  55.41999817
C    23.68000031   5.03000021  56.79000092
C    22.65000153   5.14999962  57.69000244
C    21.31000137   4.90999985  57.27000427
C    17.22999954   4.03999996  56.40999603
C    16.54000092   4.33999968  57.61000061
C    15.17000008   4.51000023  57.77999878
C    25.10999870   5.44000053  57.05999756
H    25.51537704   4.69325352  57.74274063
H    20.59000015   5.22000027  59.27000046
H    19.50000000   3.96000004  54.59000015
H    21.94999886   4.30000019  53.93000031
H    24.23999977   4.74000025  54.69999695
H    22.88999939   5.44000053  58.70999908
H    14.63999939   4.56999969  58.72000122
H    25.62999916   5.35000038  56.10000229
H    25.15999985   6.43000031  57.52999878
S    13.93000031   3.68000007  54.06000137
C    11.23000050   3.63000011  54.75000000
C    12.53000069   3.93000007  55.12000275
C    12.90999985   4.26000023  56.45999908
C    11.90000057   4.30999994  57.39999771
C    10.53999996   4.19999981  57.02000046
C     9.46000004   4.17000008  57.94000244
C     8.19000053   3.89999986  57.49000168
C     7.82000017   3.61999989  56.14999771
C     8.86999989   3.45999980  55.26000214
C    10.19000053   3.75999975  55.70000076
C    14.34999943   4.32999992  56.65000153
C    15.00000000   3.91000009  55.45999908
C    16.38000107   3.84000015  55.31000137
C     6.42000008   3.21000004  55.75000000
H     5.92177582   3.80075192  54.98130798
H    11.18999958   3.21000004  53.75000000
H    12.22000027   4.23999977  58.43999863
H     9.72000027   4.18000031  59.00000000
H     7.37999964   3.78999996  58.20000076
H     8.76999950   3.23000002  54.20999908
H    16.87000084   3.65000010  54.36000061
H     5.79999971   3.28000021  56.65999985
H     6.48999977   2.16999984  55.41999817
S    17.92000008   5.64000034  52.61000061
C    20.63999939   5.79999971  51.88999939
C    19.34999847   5.44000053  51.56999969
C    18.98999977   5.05000019  50.24000168
C    19.97999954   4.90000010  49.29000092
C    21.31000137   5.25000000  49.59999847
C    22.34000015   5.05000019  48.62999725
C    23.61000061   5.42000008  49.02999878
C    23.95999908   5.82000017  50.34000015
C    23.01000214   5.95000029  51.32999802
C    21.68000031   5.65000010  50.93000031
C    17.54999924   4.92999983  50.10000229
C    16.81999969   5.27999973  51.26999664
C    15.46000004   5.51999998  51.36000061
C    25.36999893   6.28999996  50.63999939
H    25.76840019   5.67105532  51.44391632
H    20.81999969   6.35999966  52.80000305
H    19.73999977   4.32999992  48.39000320
H    22.06999969   4.73000002  47.63000107
H    24.37999916   5.58000040  48.27999878
H    23.16999817   6.30999994  52.34000397
H    14.96999931   5.78000021  52.29999924
H    26.02999878   6.17999983  49.77000427
H    25.45999908   7.36999989  50.81999969
S    14.32999992   4.01999998  47.91999817
C    11.59000015   4.02999973  48.61000061
C    12.89999962   4.35999966  48.90999603
C    13.25000000   4.98000002  50.14999771
C    12.23000050   5.26999998  51.04000092
C    10.90000057   4.85000038  50.79999924
C     9.89999962   4.99000025  51.79999924
C     8.59000015   4.73000002  51.47999573
C     8.27000046   4.03999996  50.27999878
C     9.22000027   3.78999996  49.31999969
C    10.54999924   4.23999977  49.54000092
C    14.68999958   5.09000015  50.27000046
C    15.44999981   4.63999987  49.15999985
C    16.81999969   4.48999977  48.99000168
C     6.84000015   3.56999993  50.11000061
H     6.39814949   4.10449648  49.26905823
H    11.50000000   3.48000002  47.68000031
H    12.48000050   5.73999977  51.98999786
H    10.18000031   5.32999992  52.80000305
H     7.83999968   5.07999992  52.18999863
H     9.09000015   3.35999990  48.33000183
H    17.17000008   4.13000011  48.02000046
H     6.25000000   3.65000010  51.03000259
H     6.94999981   2.51999998  49.79999924
