96

S    17.28000069   5.21000004  59.05000305
C    19.96999931   5.01999950  58.34000015
C    18.65999985   4.75000000  58.02999878
C    18.29000092   4.23000002  56.75000000
C    19.25000000   4.05999994  55.77000046
C    20.59999847   4.35999966  56.04999924
C    21.68999863   4.18000031  55.13999939
C    22.98000145   4.48000002  55.51000214
C    23.31999969   5.19000006  56.69000244
C    22.27999878   5.38000011  57.56999969
C    20.95999908   4.88999987  57.34000397
C    16.84000015   4.21999979  56.58000183
C    16.20000076   4.81999969  57.69000244
C    14.82999992   5.03999996  57.65999603
C    24.70999908   5.55000019  57.15999985
H    25.25037575   4.76787567  57.69326782
H    20.28000069   5.46999979  59.27999878
H    18.95000076   3.68999982  54.79000092
H    21.54999924   3.67000008  54.19000244
H    23.85000038   4.18000031  54.92000198
H    22.50999832   5.75999975  58.55999756
H    14.32999992   5.64000034  58.41999817
H    25.19000053   5.69999981  56.18999863
H    24.76000023   6.47000027  57.76000214
S    13.73000050   3.82999992  54.02000046
C    11.05000019   3.88999987  54.52000046
C    12.28999996   4.26000023  54.97000122
C    12.68000031   4.72000027  56.26999664
C    11.59999943   4.94999981  57.09999847
C    10.26999950   4.69999981  56.70000076
C     9.19999981   4.84000015  57.63000107
C     7.92000008   4.48000002  57.29000092
C     7.67000008   3.84000015  56.04999924
C     8.67999935   3.58000016  55.14999771
C     9.98000050   4.07999992  55.44000244
C    14.11999893   4.72000027  56.50000000
C    14.80999947   4.17000008  55.38999939
C    16.17000008   3.88000011  55.38999939
C     6.26999950   3.40999985  55.68000031
H     5.78641224   4.13538122  55.02573395
H    10.80999947   3.37000012  53.60000229
H    11.78999996   5.26000023  58.13000107
H     9.57999992   5.10999966  58.61000061
H     7.17000008   4.77999973  58.02000046
H     8.45000076   3.03999996  54.22999954
H    16.75000000   3.54999995  54.54000092
H     5.73000002   3.28999996  56.63000107
H     6.35999966   2.39999986  55.26000214
S    14.04999924   1.87000012  50.93999863
C    11.31999969   1.39999998  51.56999969
C    12.65999985   1.23000002  51.83000183
C    13.09999943   0.59000003  53.04000092
C    12.18000031   0.11000000  53.95999908
C    10.78999996   0.25000000  53.73000336
C     9.76000023  -0.23000000  54.58000183
C     8.43000031  -0.08000001  54.27999878
C     8.07999992   0.48999998  53.02999878
C     9.01000023   0.99000001  52.15000153
C    10.39000034   0.83999997  52.48000336
C    14.53999996   0.64999998  53.22999954
C    15.19000053   1.36000013  52.19999695
C    16.54999924   1.65999997  52.27000427
C     6.65999985   0.94999999  52.77000046
H     6.15495872   0.25290078  52.10135651
H    10.95000076   2.01999998  50.77000046
H    12.61999989  -0.41999999  54.79999924
H    10.01000023  -0.73000002  55.52000046
H     7.71000004  -0.25999999  55.07999802
H     8.73000050   1.47000003  51.20999908
H    17.00000000   2.20000005  51.45000076
H     6.03999996   0.90999997  53.68000031
H     6.63999987   1.98000002  52.39999771
S    17.71999931  -0.00000000  55.72000122
C    20.43000031   0.44000000  55.19000244
C    19.11000061   0.64000005  54.82999802
C    18.70000076   1.14999998  53.55999756
C    19.68000031   1.49000001  52.63999939
C    21.04999924   1.38999999  53.00000000
C    22.03000069   1.79000008  52.04999924
C    23.36000061   1.80999994  52.36999893
C    23.72999954   1.03999996  53.50999832
C    22.82999992   0.62000000  54.45999908
C    21.42999840   0.79999995  54.25000000
C    17.26000023   1.16999996  53.36999893
C    16.60000038   0.50000000  54.43999863
C    15.26000023   0.14999999  54.31999969
C    25.20000076   0.78000003  53.69999695
H    25.56232834   1.18495512  54.64489365
H    20.68000031  -0.17000002  56.04999924
H    19.42000008   1.95999992  51.70000076
H    21.68999863   2.22000003  51.11000061
H    24.13000107   2.01999998  51.63000107
H    23.29000092   0.31000000  55.40000153
H    14.78999996  -0.35999998  55.15999603
H    25.72999954   1.13000000  52.81000137
H    25.26000023  -0.31000000  53.61999893
