96

S    17.26000023   4.65000010  58.83999634
C    19.93999863   4.73000002  58.15999985
C    18.64999962   4.51000023  57.74000168
C    18.34000015   4.00999975  56.44000244
C    19.37999916   3.70000005  55.58000183
C    20.71000099   4.07000017  55.89000320
C    21.78999901   3.96000004  54.95999908
C    23.02000046   4.48999977  55.27999878
C    23.26999855   5.03000021  56.56999969
C    22.27999878   5.09000015  57.51999664
C    20.98999977   4.56999969  57.22000122
C    16.90000153   3.84000015  56.35000229
C    16.18000031   4.11999989  57.54000092
C    14.80000019   4.25000000  57.58999634
C    24.69000053   5.31000042  56.97999954
H    25.12926674   4.50940132  57.57513428
H    20.17999840   4.96000004  59.19000244
H    19.06999969   3.44000006  54.56999969
H    21.51000023   3.56999993  53.99000168
H    23.81999969   4.48000002  54.54999924
H    22.53999901   5.55000019  58.47000122
H    14.22999954   4.65999985  58.41999817
H    25.38000107   5.44000053  56.13999939
H    24.69000053   6.26999950  57.51999664
S    13.67000008   3.19999981  53.92000198
C    10.95999908   3.35000014  54.51000214
C    12.25999928   3.51000023  54.93999863
C    12.57999992   3.94000006  56.26999664
C    11.57999992   4.17000008  57.18999863
C    10.24000072   3.88000011  56.83000183
C     9.10000038   3.98999977  57.69000244
C     7.82000017   3.60000014  57.36999893
C     7.55000019   3.17999983  56.04999924
C     8.61999989   3.00999999  55.19000244
C     9.94999981   3.40000010  55.50000000
C    14.01999950   3.88000011  56.47999573
C    14.73999977   3.54999995  55.30000305
C    16.11999893   3.40999985  55.27000046
C     6.19000006   2.64999986  55.65000153
H     5.72969294   3.20945024  54.83560944
H    10.72999954   3.07000017  53.47999954
H    11.82000065   4.36999989  58.22999954
H     9.30000019   4.40000010  58.67000198
H     7.03999996   3.76999998  58.11000061
H     8.43999958   2.70000005  54.16999817
H    16.62999916   3.08999991  54.36000061
H     5.63000011   2.56999993  56.59000015
H     6.34999990   1.63000000  55.27999878
S    13.50999928   1.39999998  51.18999863
C    10.85999966   1.07000005  51.93999863
C    12.18000031   0.75000000  52.16999817
C    12.69000053   0.08000001  53.31999969
C    11.69999981  -0.43000001  54.15000153
C    10.31999969  -0.19000000  53.96999741
C     9.35999966  -0.78000003  54.84000397
C     8.00000000  -0.69999999  54.61999893
C     7.59999990  -0.14999999  53.36999893
C     8.47999954   0.51999998  52.55000305
C     9.86999989   0.59000003  52.84999847
C    14.14000034   0.11000000  53.43000031
C    14.72000027   0.83999997  52.36000061
C    16.09000015   1.04999995  52.36000061
C     6.23000050  -0.52999997  52.85999680
H     5.93787098  -0.18087015  51.86960983
H    10.54999924   1.65000010  51.07999802
H    12.01000023  -1.12000000  54.93000031
H     9.72999954  -1.31999993  55.70999908
H     7.26000023  -1.26999998  55.15999603
H     8.27999973   0.93000001  51.56999969
H    16.64999962   1.25000000  51.45000076
H     6.11000013  -1.62000000  52.90000153
H     5.51000023  -0.14000000  53.59000397
S    17.46999931  -0.50999999  55.68999863
C    20.15999985   0.17999999  55.11000061
C    18.82999992   0.17999999  54.77000427
C    18.30999947   0.85000002  53.61999893
C    19.25000000   1.38999999  52.76000214
C    20.65000153   1.26999998  52.95999908
C    21.60000038   1.86000001  52.08000183
C    22.95999908   1.79000008  52.29000092
C    23.43000031   1.13000000  53.44999695
C    22.52000046   0.69000000  54.38999939
C    21.11999893   0.68000007  54.19000244
C    16.87000084   0.69000000  53.47000122
C    16.21999931  -0.01000000  54.52999878
C    14.88999939  -0.39999998  54.50000000
C    24.90999985   0.86000001  53.67000198
H    25.21575165   1.03776312  54.70102692
H    20.48999977  -0.32000002  56.00999832
H    18.89000130   1.97000003  51.91999817
H    21.14999962   2.47000003  51.31000137
H    23.62999916   2.23000002  51.55000305
H    22.90999985   0.27000001  55.31999969
H    14.45000076  -0.88999999  55.35999680
H    25.46999931   1.64000010  53.13000107
H    25.23999977  -0.09999999  53.25000000
