96

S    17.32999992   4.92999983  58.94000244
C    20.00999832   4.98000002  58.16999817
C    18.71000099   4.69000006  57.84000015
C    18.36000061   4.13999987  56.56999969
C    19.40000153   3.91999984  55.68000031
C    20.76000023   4.11999989  56.02000427
C    21.84000015   3.94000006  55.11000061
C    23.12000084   4.34999990  55.40000153
C    23.43000031   4.88999987  56.68000031
C    22.44999886   4.90000010  57.63999939
C    21.09000015   4.61000013  57.32999802
C    16.92000008   4.26000023  56.40999603
C    16.21999931   4.69000006  57.56999969
C    14.84000015   4.77999973  57.64999771
C    24.86000061   5.23999977  56.98999786
H    25.29475021   4.61994457  57.77397919
H    20.22000122   5.59999990  59.03999710
H    19.22999954   3.58000016  54.65999985
H    21.60000038   3.60000014  54.10999680
H    23.85999870   4.39000034  54.61000061
H    22.70000076   5.05000019  58.68999863
H    14.32000065   4.88000011  58.59000397
H    25.38000107   5.26999998  56.02000427
H    24.82999992   6.28999996  57.29999924
S    13.60999966   3.58999991  54.09999847
C    10.88999939   3.52999973  54.88999939
C    12.20999908   3.79999995  55.15999603
C    12.64999962   4.32999992  56.42000198
C    11.71000004   4.57999992  57.39999771
C    10.34000015   4.36999989  57.11000061
C     9.35000038   4.55999994  58.11999893
C     8.05999947   4.19000006  57.83000183
C     7.60999966   3.60000014  56.62000275
C     8.52999973   3.51000023  55.59999847
C     9.89000034   3.88000011  55.84000015
C    14.09000015   4.53999996  56.49000168
C    14.77000046   4.21000004  55.28999710
C    16.13999939   3.98000002  55.27999878
C     6.12999964   3.45000005  56.38000107
H     5.80409908   3.99552917  55.49440002
H    10.60999966   2.94000006  54.02999878
H    12.05000019   4.92999983  58.37999725
H     9.61000061   5.07000017  59.05000305
H     7.23000002   4.53999996  58.43000031
H     8.31999969   3.14000010  54.59999847
H    16.55999947   3.35000014  54.50000000
H     5.56999969   3.81999993  57.25000000
H     5.92999983   2.39999986  56.14999771
S    17.56999969   5.29999971  52.68000031
C    20.29999924   5.28999996  52.14000320
C    19.02000046   5.14999962  51.65000153
C    18.71000099   5.05999994  50.26000214
C    19.78999901   4.88000011  49.40999985
C    21.12999916   4.94999981  49.86999893
C    22.20000076   4.67999983  48.96999741
C    23.47999954   4.84000015  49.41999817
C    23.75999832   5.23000002  50.76000214
C    22.75000000   5.35000038  51.68000031
C    21.40000153   5.26000023  51.25000000
C    17.26000023   5.05999994  50.12000275
C    16.47999954   5.31000042  51.27999878
C    15.10000038   5.32000017  51.37000275
C    25.09000015   5.84999990  51.12999725
H    25.58139038   5.19481468  51.84928131
H    20.48999977   5.45000029  53.20000076
H    19.55000114   4.78999996  48.36000061
H    21.97999954   4.30000019  47.97000122
H    24.26000214   4.86000013  48.66000366
H    22.93999863   5.65999985  52.70999908
H    14.56999969   5.65999985  52.25999832
H    25.63999939   6.23000050  50.27000046
H    24.84999847   6.75000000  51.70999908
S    14.06999969   4.03999996  47.76000214
C    11.31999969   4.02999973  48.47000122
C    12.64000034   4.25000000  48.77999878
C    12.94000053   4.85000038  50.04000092
C    11.94000053   4.99000025  50.98999786
C    10.62000084   4.55000019  50.73999786
C     9.71000004   4.51000023  51.83000183
C     8.36999989   4.32999992  51.56000137
C     8.00000000   4.01999998  50.21999741
C     8.86999989   3.88999987  49.16999817
C    10.25000000   4.15999985  49.40000153
C    14.39000034   4.90000010  50.24000168
C    15.13000011   4.55000019  49.08000183
C    16.52000046   4.59000015  49.02000046
C     6.54999971   3.67000008  49.94999695
H     6.12839222   4.20594215  49.09963608
H    11.21999931   3.53999996  47.50000000
H    12.10999966   5.19999981  52.04000092
H     9.98000050   4.92999983  52.80000305
H     7.59000015   4.34999990  52.30999756
H     8.52000046   3.55999994  48.20000076
H    17.01000023   4.23999977  48.11999893
H     6.09000015   3.86999989  50.93000031
H     6.53999996   2.57999992  49.82999802
