96

S    17.02999878   5.28999996  58.40000153
C    19.73999977   5.10999966  57.77000046
C    18.45000076   4.69999981  57.52999878
C    18.15999985   4.13000011  56.25000000
C    19.19000053   3.95000005  55.34000015
C    20.55000114   4.17000008  55.66999817
C    21.57999992   4.03999996  54.69999695
C    22.86999893   4.23999977  55.12000275
C    23.19000053   4.73000002  56.40999603
C    22.20000076   4.96000004  57.34000397
C    20.85000038   4.74000025  56.95999908
C    16.72000122   4.13999987  56.00000000
C    16.00000000   4.71000004  57.06999969
C    14.63000107   4.98000002  57.11000061
C    24.61000061   5.12000036  56.77000046
H    25.07298279   4.49319220  57.53214264
H    19.93000031   5.65000010  58.68999863
H    18.94000053   3.70000005  54.31999969
H    21.28000069   3.82999992  53.67000198
H    23.68000031   4.07999992  54.40999985
H    22.53000069   5.46000004  58.25000000
H    14.09000015   5.55000019  57.85999680
H    25.22999954   5.17000008  55.86999893
H    24.63000107   6.15000010  57.15000153
S    13.36999989   3.38999987  53.69999695
C    10.65000057   3.75000000  54.38000107
C    11.97999954   3.98000002  54.64000320
C    12.46999931   4.51000023  55.87999725
C    11.52999973   4.76999998  56.86000061
C    10.15999985   4.46999979  56.66999817
C     9.11999989   4.55000019  57.64999771
C     7.81000042   4.19999981  57.43999863
C     7.39000034   3.82999992  56.13999939
C     8.34999943   3.56999993  55.18000031
C     9.70000076   3.94000006  55.40999985
C    13.92000008   4.48000002  56.00999832
C    14.57999992   3.89999986  54.89999771
C    15.97000027   3.86999989  54.85000229
C     5.92000008   3.58999991  55.87999725
H     5.54249048   4.05298281  54.96827698
H    10.47000027   3.24000001  53.43999863
H    11.92000008   5.10999966  57.81000137
H     9.43000031   4.90999985  58.62999725
H     7.11000013   4.38000011  58.25000000
H     8.02999973   3.08999991  54.26000214
H    16.44000053   3.77999997  53.88000107
H     5.32000017   3.96000004  56.72000122
H     5.75999975   2.50999975  56.02000427
S    17.89999962   5.71000004  52.85999680
C    20.58000183   5.61999989  52.18000031
C    19.29000092   5.25000000  51.86999893
C    18.89000130   4.79999971  50.56999969
C    19.88999939   4.51000023  49.65000153
C    21.21999931   4.88000011  49.95999908
C    22.29999924   4.48000002  49.12000275
C    23.55999947   4.98000002  49.34000015
C    23.88999939   5.72000027  50.51000214
C    22.93000031   5.93999958  51.45999908
C    21.59000015   5.51000023  51.19999695
C    17.45000076   4.69000006  50.41999817
C    16.79000092   5.25000000  51.55000305
C    15.42000008   5.46000004  51.50000000
C    25.32999992   6.09000015  50.79999924
H    25.80834389   5.40461302  51.49966431
H    20.68000031   6.21999979  53.09000015
H    19.68000031   3.88999987  48.79000092
H    21.94999886   4.01999998  48.18999863
H    24.28999901   4.88999987  48.54000092
H    23.09000015   6.30000019  52.47000122
H    14.94999981   5.75000000  52.43999863
H    25.86000061   6.05999994  49.84000397
H    25.36999893   7.11000013  51.19999695
S    14.29999924   3.82999992  48.04000092
C    11.61000061   4.05999994  48.67000198
C    12.90999985   4.28999996  49.05000305
C    13.22000027   4.82999992  50.34000015
C    12.13999939   5.18000031  51.12999725
C    10.78999996   4.90999985  50.80999756
C     9.67000008   5.09000015  51.68000031
C     8.40999985   4.65999985  51.35000229
C     8.15999985   4.11999989  50.06000137
C     9.21000004   3.89999986  49.19000244
C    10.53999996   4.18000031  49.59000015
C    14.67000008   4.94000006  50.44000244
C    15.36000061   4.34999990  49.36000061
C    16.75000000   4.19000006  49.31999969
C     6.78999996   3.54999995  49.75000000
H     6.25683594   4.19690561  49.05332947
H    11.36000061   3.65000010  47.69000244
H    12.35000038   5.69000006  52.06999969
H     9.80000019   5.49000025  52.68000031
H     7.57000017   4.90999985  52.00000000
H     9.02000046   3.38999987  48.25000000
H    17.18000031   3.67000008  48.47000122
H     6.19999981   3.30999994  50.65000153
H     7.00999975   2.61999989  49.22999954
