96

S    17.21999931   4.61000013  58.64999771
C    19.93999863   4.76000023  58.01000214
C    18.65999985   4.42000008  57.63999939
C    18.35000038   4.13000011  56.26999664
C    19.37000084   4.03999996  55.34000015
C    20.71000099   4.32000017  55.72000122
C    21.87000084   4.15999985  54.92000198
C    23.18000031   4.26999998  55.34000015
C    23.44000053   4.72000027  56.65999985
C    22.34999847   4.90999985  57.48000336
C    21.00000000   4.67000008  57.08000183
C    16.92000008   4.05999994  56.02000427
C    16.21000099   4.33999968  57.22000122
C    14.81999969   4.32999992  57.29000092
C    24.82999992   5.19000006  57.02000046
H    25.25549316   4.65813494  57.87098694
H    20.09000015   5.17000008  59.01000214
H    19.17000008   3.61999989  54.36000061
H    21.60000038   3.75999975  53.95000076
H    23.97999954   4.09000015  54.61999893
H    22.42000198   5.45000029  58.41999817
H    14.44000053   4.55999994  58.27999878
H    25.52999878   5.00000000  56.20999908
H    24.77000046   6.26999950  57.19999695
S    13.64999962   3.14000010  53.69999695
C    11.00000000   2.96999979  54.40999985
C    12.27000046   3.31999993  54.79999924
C    12.61999989   3.91999984  56.05999756
C    11.56999969   4.02999973  56.95000076
C    10.24000072   3.71000004  56.62000275
C     9.21000004   3.96000004  57.56000137
C     7.92000008   3.61000013  57.22999954
C     7.57000017   3.05999994  55.97000122
C     8.57999992   2.79999995  55.06000137
C     9.92000008   3.19000006  55.31000137
C    14.06000042   4.11999989  56.12999725
C    14.75000000   3.75000000  54.94999695
C    16.13999939   3.70000005  54.92000198
C     6.14000034   2.63999987  55.72000122
H     5.51312637   3.25975060  55.07888031
H    10.78999996   2.61000013  53.40999985
H    11.72999954   4.50000000  57.91999817
H     9.48999977   4.42000008  58.50999832
H     7.11999989   3.61999989  57.95999908
H     8.22000027   2.28999996  54.16999817
H    16.65999985   3.33999991  54.02999878
H     5.75999975   2.64999986  56.75000000
H     6.26999950   1.58999991  55.45000076
S    17.79000092   5.26000023  52.62000275
C    20.45999908   5.53999996  51.93999863
C    19.20999908   5.07000017  51.58000183
C    18.88000107   4.50000000  50.31000137
C    19.88000107   4.46000004  49.34999847
C    21.21999931   4.73000002  49.69999695
C    22.32000160   4.53999996  48.81000137
C    23.62999916   4.85000038  49.09999847
C    23.88999939   5.32000017  50.40999985
C    22.86000061   5.53999996  51.29000092
C    21.48999977   5.26999998  51.00000000
C    17.43000031   4.39000034  50.20999908
C    16.65999985   4.78999996  51.32999802
C    15.29000092   5.00000000  51.42000198
C    25.29999924   5.72000027  50.76000214
H    25.62723732   5.32162380  51.72037125
H    20.72999954   5.98999977  52.88999939
H    19.59000015   3.96000004  48.43000031
H    22.04999924   4.17000008  47.81999969
H    24.40999985   4.67999983  48.36999893
H    22.98999977   5.89999962  52.30999756
H    14.73999977   5.36000013  52.29000092
H    26.07000160   5.52999973  50.00000000
H    25.45000076   6.78999996  50.93999863
S    14.19999981   3.42000008  47.88999939
C    11.44000053   3.65999985  48.52000427
C    12.76000023   3.88999987  48.82999802
C    13.12000084   4.46000004  50.08999634
C    12.10000038   4.73000002  51.00000000
C    10.73999977   4.53000021  50.70000076
C     9.72000027   4.61999989  51.69000244
C     8.42000008   4.30000019  51.36000061
C     8.10000038   3.86999989  50.05000305
C     9.03999996   3.70000005  49.05000305
C    10.38000011   3.98999977  49.40999985
C    14.55000019   4.53999996  50.33000183
C    15.24000072   3.98999977  49.20999908
C    16.61999893   3.97000027  49.13999939
C     6.67999983   3.45999980  49.73999786
H     6.21665049   4.05879021  48.95586777
H    11.17000008   3.25000000  47.56000137
H    12.38000011   5.03999996  52.00000000
H    10.08999920   4.78999996  52.69000244
H     7.63999987   4.33999968  52.11999893
H     8.92000008   3.15000010  48.11999893
H    17.04000092   3.58999991  48.20999908
H     6.11000013   3.63999987  50.65999985
H     6.61999989   2.38999987  49.54999924
