96

S    17.61999893   5.03000021  58.73000336
C    20.31999969   5.00999975  58.02999878
C    19.02000046   4.76999998  57.65999603
C    18.65999985   4.13000011  56.43000031
C    19.67000008   3.82999992  55.54000092
C    21.00000000   4.23000002  55.77999878
C    22.06000137   4.13999987  54.82999802
C    23.34000015   4.53000021  55.17000198
C    23.68000031   5.01999950  56.45000076
C    22.65999985   5.25000000  57.34000397
C    21.34000015   4.78999996  57.05999756
C    17.21999931   4.00000000  56.26999664
C    16.55999947   4.53999996  57.39999771
C    15.18000031   4.65000010  57.49000168
C    25.12000084   5.29999971  56.84999847
H    25.42678070   4.67930698  57.69185638
H    20.63999939   5.55999994  58.90999603
H    19.31999969   3.53999996  54.54999924
H    21.78999901   3.75999975  53.85000229
H    24.14999962   4.34999990  54.47000122
H    22.69000053   6.00000000  58.11999893
H    14.67000008   4.94000006  58.40000153
H    25.76000023   5.07000017  55.98999786
H    25.34000015   6.30000019  57.25999832
S    14.00000000   3.56999993  53.82999802
C    11.30000019   3.61000013  54.41999817
C    12.57999992   3.86000013  54.86000061
C    13.01000023   4.36999989  56.11999893
C    11.97999954   4.67999983  56.98999786
C    10.64000034   4.46999979  56.59000015
C     9.55000019   4.50000000  57.50999832
C     8.22000027   4.30999994  57.25000000
C     7.90999985   3.78999996  55.96000290
C     8.90999985   3.48000002  55.06999969
C    10.25000000   3.88000011  55.33000183
C    14.46000004   4.36999989  56.31999969
C    15.11999989   3.88000011  55.17000198
C    16.50000000   3.75000000  55.08999634
C     6.56000042   3.15000010  55.68000031
H     5.88228989   3.72070312  55.04509354
H    11.18000031   3.09999990  53.47000122
H    12.10000038   4.85000038  58.04999924
H     9.82999992   4.88000011  58.48999786
H     7.50000000   4.42999983  58.04999924
H     8.64999962   2.89000010  54.20000076
H    16.98999977   3.50000000  54.15000153
H     6.11999989   3.07999992  56.68000031
H     6.70000029   2.13000011  55.30000305
S    14.22000027   1.71000004  51.03000259
C    11.63000011   1.10000002  51.72000122
C    12.96000004   0.99000001  52.04999924
C    13.40999985   0.39999998  53.27999878
C    12.46000099  -0.17000002  54.09999847
C    11.07999992  -0.05000000  53.77999878
C    10.10000038  -0.50000000  54.69999695
C     8.75000000  -0.43000001  54.45999908
C     8.32999992   0.20999999  53.26000214
C     9.22000027   0.62000000  52.29999924
C    10.62000084   0.55000001  52.55000305
C    14.85000038   0.56999999  53.37999725
C    15.40999985   1.14999998  52.22000122
C    16.77999878   1.35000002  52.18000031
C     6.88000011   0.50999999  52.95999908
H     6.44553566  -0.14525759  52.20502853
H    11.36999989   1.64000010  50.81999969
H    12.79999924  -0.45000002  55.08999634
H    10.43000031  -0.69000000  55.72000122
H     8.13000011  -0.56999999  55.34000015
H     8.93999958   1.19000006  51.42000198
H    17.27000046   1.84000003  51.33999634
H     6.39999962   0.41999999  53.95000076
H     6.75000000   1.52999997  52.56999969
S    18.20999908  -0.19999999  55.54000092
C    20.86999893   0.38000000  54.86999893
C    19.52999878   0.46999997  54.56999969
C    19.01000023   1.19999993  53.46000290
C    19.92000008   1.77999997  52.57999802
C    21.31000137   1.56000006  52.71999741
C    22.27000046   1.92000008  51.72999954
C    23.59000015   1.93000007  52.09000015
C    24.10000038   1.36999989  53.29000092
C    23.18000031   0.85000002  54.18000031
C    21.77999878   0.93000001  53.93000031
C    17.56999969   1.07000005  53.29999924
C    16.97999954   0.35999998  54.38000107
C    15.62999916   0.07000000  54.43999863
C    25.59000015   1.43999994  53.54000092
H    25.84761810   1.44715595  54.59909439
H    21.24000168  -0.13000000  55.76000214
H    19.63000107   2.26999998  51.65999985
H    22.11000061   2.44000006  50.79000092
H    24.30000114   2.45000005  51.45999908
H    23.51000023   0.32999998  55.06999969
H    15.21000004  -0.59999996  55.19000244
H    25.96999931   2.36000013  53.08000183
H    26.11000061   0.69999999  52.91999817
