96

S    17.40999985   4.85000038  58.86000061
C    20.06999969   5.09999990  58.02999878
C    18.78000069   4.72000027  57.74000168
C    18.42000008   4.40000010  56.38999939
C    19.42000008   4.34999990  55.44000244
C    20.78000069   4.57999992  55.77999878
C    21.77999878   4.44000006  54.78000259
C    23.06999969   4.86000013  55.02999878
C    23.42000008   5.36999989  56.30000305
C    22.50000000   5.36999989  57.32999802
C    21.12999916   5.03000021  57.09999847
C    16.97000122   4.39000034  56.27999878
C    16.28999901   4.61999989  57.50999832
C    14.91000080   4.75000000  57.58999634
C    24.89000130   5.55999994  56.59999847
H    25.26638603   4.89954996  57.38117599
H    20.25000000   5.58000040  58.99000168
H    19.34000015   4.00000000  54.40999985
H    21.35999870   4.15999985  53.82999802
H    23.82999802   4.85000038  54.25000000
H    22.67999840   5.51999998  58.39000320
H    14.44000053   5.00000000  58.54000092
H    25.40999985   5.32000017  55.66999817
H    24.96999931   6.63000011  56.81000137
S    13.68999958   3.70000005  53.95000076
C    11.02000046   3.72000003  54.64000320
C    12.30999947   3.93000007  55.05000305
C    12.69000053   4.35999966  56.36000061
C    11.67000008   4.39000034  57.29000092
C    10.34000015   4.07000017  56.95000076
C     9.26999950   4.11000013  57.90000153
C     7.95000029   3.91999984  57.55000305
C     7.64999962   3.61000013  56.19999695
C     8.63000011   3.49000001  55.24000168
C     9.96999931   3.82999992  55.58000183
C    14.14000034   4.48999977  56.45000076
C    14.80000019   4.13999987  55.25000000
C    16.18999863   4.09999990  55.14999771
C     6.21999979   3.28000021  55.83000183
H     5.77107191   4.00683641  55.15304184
H    10.72999954   3.42000008  53.62999725
H    11.92999935   4.86000013  58.23999786
H     9.46000004   4.48999977  58.89999771
H     7.16000032   4.03999996  58.27999878
H     8.38999939   2.96999979  54.31000137
H    16.67000008   3.61000013  54.31999969
H     5.52999973   3.16000009  56.68000031
H     6.19999981   2.31999993  55.31000137
S    14.17000008   1.58999991  50.70000076
C    11.42000008   1.22000003  51.55000305
C    12.77999973   1.12000000  51.70000076
C    13.21000004   0.64000005  52.97999954
C    12.36999989   0.19000000  53.97999573
C    10.98000050   0.20999999  53.74000168
C    10.01000023  -0.27000001  54.65999985
C     8.65999985  -0.17000002  54.40999985
C     8.14000034   0.45000002  53.23999786
C     9.06999969   0.94999999  52.36999893
C    10.47000027   0.76999998  52.50999832
C    14.65000057   0.68000007  53.16999817
C    15.29000092   1.24000001  52.02999878
C    16.65999985   1.49000001  51.95999908
C     6.67999983   0.79000002  53.02000046
H     6.33851242   0.37025505  52.07379532
H    11.13000011   1.76999998  50.65999985
H    12.81000042  -0.27000001  54.86999893
H    10.39000034  -0.74000001  55.56000137
H     7.92999983  -0.43000001  55.17000198
H     8.76999950   1.44999993  51.45000076
H    17.12000084   1.65999997  51.00000000
H     6.05000019   0.34999999  53.80000305
H     6.54999971   1.87999988  53.04999924
S    18.00000000   0.37000000  55.51000214
C    20.68000031   0.69000000  54.72000122
C    19.34000015   0.87000000  54.45999908
C    18.89999962   1.42000008  53.22000122
C    19.78000069   2.00999999  52.32999802
C    21.15999985   1.88999999  52.61000061
C    22.11000061   2.38000011  51.66999817
C    23.44000053   2.48000002  52.01000214
C    23.90999985   1.98000002  53.25000000
C    23.01000214   1.38999999  54.10999680
C    21.61999893   1.29999995  53.83999634
C    17.45000076   1.28000009  53.09999847
C    16.81999969   0.71999997  54.23999786
C    15.47000027   0.39000002  54.27000046
C    25.36000061   2.21000004  53.61999893
H    25.65218544   1.68976736  54.53218842
H    20.98999977   0.22000000  55.65000153
H    19.43000031   2.39999986  51.38000107
H    21.81999969   2.64999986  50.65999985
H    24.17000008   2.99000001  51.38000107
H    23.35000038   1.04999995  55.08999634
H    15.06999969  -0.03000000  55.19000244
H    25.56999969   3.28000021  53.75000000
H    26.02000046   1.82999992  52.83000183
