96

S    17.46000099   5.10999966  58.87000275
C    20.17999840   5.09999990  58.25000000
C    18.89000130   4.86000013  57.84999847
C    18.45999908   4.35999966  56.58000183
C    19.47999954   4.09999990  55.68000031
C    20.81999969   4.42000008  56.00000000
C    21.84999847   4.23999977  55.04000092
C    23.15000153   4.61000013  55.33000183
C    23.48999977   5.23999977  56.55000305
C    22.50999832   5.47999954  57.49000168
C    21.18999863   5.01999950  57.25999832
C    17.02999878   4.15999985  56.38999939
C    16.38000107   4.61999989  57.56000137
C    14.98999977   4.74000025  57.57999802
C    24.92000198   5.58000040  56.88000107
H    25.29006958   5.04624414  57.75535965
H    20.34000015   5.64000034  59.18000031
H    19.27999878   3.63000011  54.72000122
H    21.47999954   3.88000011  54.08000183
H    23.92000008   4.34999990  54.61000061
H    22.75000000   5.88999987  58.47000122
H    14.51000023   5.10999966  58.47999954
H    25.59999847   5.53999996  56.02000427
H    24.86999893   6.63999987  57.18000031
S    13.80000019   3.68000007  53.89999771
C    11.07999992   3.70000005  54.65999985
C    12.39999962   3.98000002  54.94999695
C    12.77999973   4.42000008  56.25999832
C    11.79999924   4.63000011  57.22000122
C    10.44000053   4.51999998  56.86999893
C     9.31999969   4.65999985  57.75000000
C     8.03999996   4.25000000  57.45999908
C     7.75000000   3.58999991  56.24000168
C     8.75000000   3.45999980  55.31000137
C    10.06999969   3.89999986  55.63000107
C    14.22000027   4.44000006  56.45000076
C    14.88000011   4.11000013  55.24000168
C    16.26000023   3.91999984  55.24000168
C     6.38000011   2.98000002  56.02000427
H     5.85169315   3.58683944  55.28465652
H    10.73999977   3.33999991  53.68999863
H    12.05000019   4.86999989  58.25000000
H     9.55999947   5.03000021  58.74000168
H     7.28999996   4.18000031  58.23999786
H     8.60000038   3.00999999  54.33000183
H    16.77999878   3.58999991  54.34999847
H     5.80999947   2.84999990  56.95999908
H     6.48999977   1.95999992  55.65000153
S    13.94000053   1.69000006  50.91999817
C    11.25000000   1.11000001  51.59999847
C    12.60000038   1.04999995  51.88999939
C    13.04999924   0.48000002  53.13000107
C    12.13000107   0.03000000  54.05000305
C    10.73999977   0.09999999  53.76999664
C     9.75000000  -0.20999999  54.75000000
C     8.42000008  -0.12000000  54.43000031
C     7.95000029   0.51999998  53.26000214
C     8.89000034   0.97999996  52.36000061
C    10.26999950   0.68000007  52.54000092
C    14.47999954   0.67000002  53.34999847
C    15.07999992   1.22000003  52.18999863
C    16.46000099   1.41000009  52.18000031
C     6.47000027   0.64999998  53.00000000
H     6.23471117   0.30063134  51.99467468
H    10.90999985   1.88999999  50.93000031
H    12.48000050  -0.19999999  55.05000305
H    10.15999985  -0.59999996  55.66999817
H     7.76999998  -0.50000000  55.21999741
H     8.52999973   1.59999990  51.53999710
H    17.01000023   1.86000001  51.36000061
H     5.91000032   0.05000000  53.72000122
H     6.01000023   1.65000010  53.02999878
S    17.81999969   0.01000000  55.65000153
C    20.46999931   0.44000000  54.93000031
C    19.13999939   0.68000007  54.66999817
C    18.64999962   1.26999998  53.46000290
C    19.60000038   1.65000010  52.54000092
C    20.98999977   1.53999996  52.76000214
C    22.00000000   1.84000003  51.79999924
C    23.31999969   1.92000008  52.18999863
C    23.75000000   1.30999994  53.39000320
C    22.79999924   0.82999998  54.26000214
C    21.40999985   0.82999998  53.94000244
C    17.20999908   1.08999991  53.31999969
C    16.60000038   0.54000002  54.47999954
C    15.24000072   0.27000001  54.45999908
C    25.22000122   1.10000002  53.67000198
H    25.63493538   1.53639770  54.57856369
H    20.72000122   0.09999999  55.93000031
H    19.18000031   2.05999994  51.62000275
H    21.76000214   2.03999996  50.75000000
H    24.06999969   2.33999991  51.52000046
H    23.09000015   0.44000000  55.22999573
H    14.81999969  -0.46000001  55.13999939
H    25.81000137   1.24000001  52.75000000
H    25.29000092   0.03000000  53.90999603
