96

S    16.80999947   4.55000019  58.77999878
C    19.47999954   4.69999981  58.09000015
C    18.22999954   4.25000000  57.76000214
C    17.84000015   3.95000005  56.40999603
C    18.89000130   3.61000013  55.58000183
C    20.22000122   4.00000000  55.86000061
C    21.28000069   3.81999993  54.92000198
C    22.59000015   4.07999992  55.25000000
C    22.88000107   4.69999981  56.49000168
C    21.87999916   4.90000010  57.41000366
C    20.52000046   4.63000011  57.11999893
C    16.40999985   3.96000004  56.17000198
C    15.75000000   4.28999996  57.37999725
C    14.37000084   4.41000032  57.42000198
C    24.31999969   4.90999985  56.91999817
H    24.70440102   4.24797535  57.69592285
H    19.78999901   5.22000027  59.00000000
H    18.53999901   3.12999988  54.66999817
H    20.93000031   3.40999985  53.96999741
H    23.44000053   3.88999987  54.61000061
H    22.06999969   5.22000027  58.43999863
H    13.82999992   4.51000023  58.36000061
H    24.92000198   4.76999998  56.02000427
H    24.41999817   5.95000029  57.25000000
S    13.10999966   3.37000012  53.85000229
C    10.46000004   3.17999983  54.64000320
C    11.72999954   3.63999987  54.92000198
C    12.10999966   4.15000010  56.19999695
C    11.13999939   4.39000034  57.15999985
C     9.81000042   3.98999977  56.90999985
C     8.82000065   4.09999990  57.93000031
C     7.53999996   3.68000007  57.64999771
C     7.22000027   2.94999981  56.46999741
C     8.21000004   2.73999977  55.54000092
C     9.53999996   3.22000003  55.72000122
C    13.55999947   4.19000006  56.30000305
C    14.26000023   3.76999998  55.13999939
C    15.64000034   3.63000011  55.04000092
C     5.77000046   2.72000027  56.11999893
H     5.34284115   3.39633512  55.37958908
H    10.26000023   2.69000006  53.69999695
H    11.32999992   4.72000027  58.18000031
H     9.11000061   4.51000023  58.88999939
H     6.77999973   3.95000005  58.37999725
H     8.01999950   2.43000007  54.52000046
H    16.13999939   3.16000009  54.20999908
H     5.14999962   2.93000007  57.01000214
H     5.66999960   1.72000003  55.68999863
S    17.43999863   5.23000002  52.74000168
C    20.12000084   5.17000008  52.12999725
C    18.85000038   4.86000013  51.72000122
C    18.46999931   4.23000002  50.48999786
C    19.52000046   3.86000013  49.68000031
C    20.86999893   4.15999985  50.01999664
C    21.90999985   4.15000010  49.03999710
C    23.22000122   4.41000032  49.36999893
C    23.54999924   4.85000038  50.68000031
C    22.53999901   4.98000002  51.59999847
C    21.18000031   4.67999983  51.31999969
C    17.02999878   4.09000015  50.34999847
C    16.35000038   4.59000015  51.49000168
C    14.98000050   4.84000015  51.52999878
C    24.89000130   5.49000025  50.97999954
H    25.42498779   4.95501232  51.76465225
H    20.31999969   5.69000006  53.06999969
H    19.26000023   3.55999994  48.67000198
H    21.60000038   4.13999987  48.00000000
H    23.98999977   4.48000002  48.61000061
H    22.63000107   5.49000025  52.56000137
H    14.53999996   5.22000027  52.43999863
H    25.45000076   5.49000025  50.02999878
H    24.76000023   6.57000017  51.12999725
S    13.76000023   3.65000010  47.95000076
C    11.11999989   3.53999996  48.67000198
C    12.38000011   3.97000027  49.02000046
C    12.76000023   4.51000023  50.28999710
C    11.72999954   4.67000008  51.19999695
C    10.39999962   4.26999998  50.89000320
C     9.35999966   4.42000008  51.84000015
C     8.03999996   4.11999989  51.59999847
C     7.69000006   3.72000003  50.27999878
C     8.69000053   3.61000013  49.34000015
C    10.07999992   3.65000010  49.62999725
C    14.21000004   4.53000021  50.40000153
C    14.88999939   3.98000002  49.27999878
C    16.25000000   3.71000004  49.25000000
C     6.26999950   3.32999992  49.93999863
H     5.84247494   4.04254055  49.23458481
H    10.95999908   3.15000010  47.67000198
H    11.90000057   5.12000036  52.16999817
H     9.73999977   4.73000002  52.81000137
H     7.26000023   4.21000004  52.36000061
H     8.39999962   3.32999992  48.33000183
H    16.79000092   3.28000021  48.40999985
H     5.69000006   3.31999993  50.87999725
H     6.32999992   2.33999991  49.45999908
