96

S    16.97000122   4.86000013  58.88999939
C    19.72999954   5.03000021  58.20999908
C    18.44000053   4.65999985  57.90999985
C    18.13999939   4.28000021  56.56000137
C    19.14999962   4.25000000  55.61999893
C    20.48999977   4.41000032  56.00999832
C    21.57999992   4.32000017  55.08999634
C    22.86999893   4.74000025  55.33000183
C    23.15000153   5.26000023  56.62000275
C    22.14999962   5.35000038  57.56000137
C    20.82999992   4.88999987  57.32999802
C    16.69999886   4.17000008  56.36000061
C    15.92000008   4.48000002  57.50000000
C    14.52999973   4.53999996  57.55000305
C    24.57999992   5.58000040  56.98999786
H    25.05670929   4.95387411  57.74419403
H    19.81999969   5.58000040  59.13999939
H    18.81999969   4.34999990  54.59000015
H    21.28999901   4.03999996  54.08000183
H    23.64999962   4.67000008  54.58000183
H    22.37999916   5.65000010  58.57999802
H    14.07999992   4.85000038  58.47999954
H    25.17000008   5.40999985  56.07999802
H    24.70000076   6.65000010  57.22999954
S    13.53000069   3.63000011  53.74000168
C    10.80999947   3.60000014  54.43000031
C    12.10999966   3.86999989  54.79000092
C    12.42000008   4.30999994  56.11000061
C    11.46999931   4.41000032  57.11000061
C    10.14999962   4.09000015  56.72000122
C     9.11999989   4.17000008  57.70999908
C     7.79999971   3.97000027  57.38999939
C     7.44999981   3.63999987  56.05999756
C     8.40999985   3.42999983  55.08999634
C     9.76000023   3.76999998  55.37000275
C    13.86000061   4.30999994  56.33999634
C    14.55000019   3.98000002  55.14999771
C    15.93999958   3.91000009  55.20999908
C     6.01000023   3.31999993  55.76000214
H     5.62463522   3.90518308  54.92504501
H    10.47999954   3.23000002  53.47000122
H    11.65999985   4.71000004  58.13999939
H     9.50000000   4.46000004  58.68000031
H     6.97000027   4.19000006  58.06000137
H     8.15999985   3.01999998  54.10999680
H    16.46999931   3.61000013  54.31000137
H     5.45000029   3.58000016  56.68000031
H     6.00000000   2.23000002  55.65000153
S    13.78999901   1.44999993  50.84999847
C    11.14999962   0.92000002  51.53999710
C    12.48999977   0.69000000  51.77999878
C    12.90999985   0.08000001  53.01000214
C    11.96000004  -0.38000000  53.89999771
C    10.57999992  -0.14000000  53.69999695
C     9.57999992  -0.54000002  54.62999725
C     8.23999977  -0.32000002  54.38000107
C     7.82000017   0.25000000  53.15000153
C     8.78000069   0.55000001  52.21000290
C    10.18000031   0.48000002  52.47000122
C    14.34999943   0.25999999  53.15999985
C    14.94999981   1.02999997  52.11999893
C    16.28999901   1.41000009  52.18999863
C     6.40999985   0.69999999  52.87000275
H     5.89175892   0.17465979  52.06779099
H    10.82999992   1.41000009  50.61999893
H    12.11999989  -0.85000002  54.86999893
H     9.81999969  -0.99000001  55.59000015
H     7.53000021  -0.75999999  55.07999802
H     8.50000000   1.03999996  51.27999878
H    16.72999954   1.93000007  51.35000229
H     5.82000017   0.73000002  53.79000092
H     6.53999996   1.75000000  52.58999634
S    17.51000023  -0.23000000  55.61999893
C    20.15999985   0.45000002  55.20000076
C    18.84000015   0.63000000  54.82999802
C    18.48999977   1.21000004  53.56999969
C    19.52000046   1.72000003  52.80000305
C    20.88999939   1.67999995  53.15000153
C    21.93000031   1.95999992  52.22000122
C    23.22999954   1.69000006  52.60000229
C    23.48999977   0.85000002  53.72000122
C    22.52000046   0.57999998  54.65999985
C    21.18000031   0.97999996  54.38000107
C    17.05999947   1.08999991  53.30999756
C    16.43000031   0.28999999  54.29999924
C    15.08999920  -0.07000000  54.29999924
C    24.90999985   0.39000002  53.95999908
H    25.33952141   0.90542471  54.81903839
H    20.40999985  -0.23000000  56.00999832
H    19.29000092   2.10999990  51.81000137
H    21.61000061   2.27999997  51.24000168
H    24.03000069   2.05999994  51.97999954
H    22.72000122   0.00000000  55.56000137
H    14.70999908  -0.64999998  55.13000107
H    25.56999969   0.62000000  53.11000061
H    25.05000114  -0.69999999  54.00000000
