96

S    17.17000008   4.57999992  58.92000198
C    19.85000038   4.71000004  58.25000000
C    18.57999992   4.30999994  57.88000107
C    18.17000008   4.07999992  56.52999878
C    19.19000053   4.05999994  55.59000015
C    20.53999901   4.28999996  55.96000290
C    21.61999893   4.23000002  55.04000092
C    22.93999863   4.46999979  55.34999847
C    23.28000069   4.84000015  56.68000031
C    22.26000023   4.90000010  57.61000061
C    20.89999962   4.65000010  57.30999756
C    16.72999954   4.15000010  56.36000061
C    16.03999901   4.46000004  57.56000137
C    14.67000008   4.71000004  57.62000275
C    24.70999908   5.18000031  57.02999878
H    25.18019485   4.45333338  57.69254684
H    20.07999802   4.92999983  59.29000092
H    18.95000076   3.86000013  54.54999924
H    21.25999832   3.78999996  54.10999680
H    23.72999954   4.23000002  54.64000320
H    22.39999962   5.28999996  58.61999893
H    14.22999954   5.03999996  58.55999756
H    25.29999924   5.09000015  56.11999893
H    24.68000031   6.19999981  57.44999695
S    13.45999908   3.75000000  53.97999573
C    10.72999954   3.86000013  54.61000061
C    12.03999996   4.00000000  55.00999832
C    12.44999981   4.30999994  56.35000229
C    11.46999931   4.44999981  57.31999969
C    10.11999989   4.21000004  56.95000076
C     9.09000015   4.26999998  57.93000031
C     7.76000023   4.21000004  57.60000229
C     7.36000013   3.78999996  56.30000305
C     8.34000015   3.67000008  55.34999847
C     9.72000027   3.91999984  55.59999847
C    13.89000034   4.33999968  56.52000046
C    14.59000015   4.01999998  55.31999969
C    15.97000027   3.96000004  55.20000076
C     5.89999962   3.56999993  55.96000290
H     5.69337225   4.20413256  55.09786606
H    10.60999966   3.48000002  53.60000229
H    11.64999962   4.69000006  58.36000061
H     9.56999969   4.63999987  58.82999802
H     7.03999996   4.72000027  58.22999954
H     8.06999969   3.33999991  54.34999847
H    16.36999893   3.54999995  54.27999878
H     5.29999971   3.81000018  56.84000015
H     5.71000004   2.51999998  55.68000031
S    17.77000046   5.29999971  52.64999771
C    20.48999977   5.50000000  51.95999908
C    19.19999886   5.18000031  51.60999680
C    18.78000069   4.88999987  50.27000046
C    19.78000069   4.71000004  49.33000183
C    21.11999893   5.05999994  49.59999847
C    22.13000107   5.05999994  48.61000061
C    23.42000008   5.45000029  48.88999939
C    23.78000069   5.93999958  50.17000198
C    22.79000092   6.00000000  51.11999893
C    21.45000076   5.53999996  50.91999817
C    17.34000015   4.74000025  50.10000229
C    16.64999962   5.07999992  51.29000092
C    15.27999973   5.32999992  51.25000000
C    25.22999954   6.02999973  50.61000061
H    25.50018311   5.48252439  51.51298141
H    20.69000053   5.75999975  52.98999786
H    19.45000076   4.40000010  48.34000015
H    21.88999939   4.48999977  47.71999741
H    24.26000214   5.32999992  48.20999908
H    23.05000114   6.39999962  52.09000015
H    14.77000046   5.32999992  52.19999695
H    25.90999985   5.73000002  49.79999924
H    25.43000031   7.07999992  50.86999893
S    14.18000031   4.23000002  47.61000061
C    11.54999924   4.13000011  48.20000076
C    12.76999950   4.59000015  48.61999893
C    13.12000084   5.07999992  49.92000198
C    12.10000038   5.14999962  50.84999847
C    10.77000046   4.92999983  50.40000153
C     9.76000023   5.03999996  51.39999771
C     8.47000027   4.69000006  51.04999924
C     8.13000011   4.15999985  49.78000259
C     9.13000011   4.05000019  48.83999634
C    10.47999954   4.42999983  49.09000015
C    14.55999947   5.19000006  50.05000305
C    15.26999950   4.73000002  48.92000198
C    16.63999939   4.44999981  48.92000198
C     6.71999979   3.67000008  49.54999924
H     6.21706390   4.37127686  48.88414001
H    11.44000053   3.47000003  47.34000397
H    12.42000008   5.35000038  51.86999893
H    10.03000069   5.28999996  52.42000198
H     7.72000027   4.63000011  51.84000015
H     9.01000023   3.48000002  47.91999817
H    17.12000084   4.13999987  48.00000000
H     6.25000000   3.47000003  50.52000046
H     6.72999954   2.66000009  49.12000275
