96

S    17.43000031   5.22000027  58.72000122
C    20.13000107   5.33999968  58.04999924
C    18.85000038   5.00999975  57.68000031
C    18.51000023   4.50000000  56.38000107
C    19.52000046   4.38000011  55.45000076
C    20.86000061   4.69999981  55.79000092
C    21.94000053   4.46999979  54.88999939
C    23.25000000   4.67000008  55.26000214
C    23.54000092   5.27999973  56.51000214
C    22.53999901   5.45000029  57.43999863
C    21.18000031   5.18000031  57.11000061
C    17.05999947   4.38000011  56.27999878
C    16.32999992   4.94999981  57.35000229
C    14.93999958   5.01999950  57.41000366
C    24.93999863   5.64000034  56.95000076
H    25.40168190   4.85869074  57.55374146
H    20.30999947   5.75000000  59.03999710
H    19.40000153   4.05000019  54.41999817
H    21.61000061   3.94000006  54.00000000
H    24.13999939   4.42999983  54.68999863
H    22.79999924   5.78000021  58.43999863
H    14.40000057   5.38999987  58.27999878
H    25.59999847   5.86999989  56.10000229
H    24.92000198   6.60000038  57.47000122
S    13.78999901   3.38000011  54.01000214
C    11.10000038   3.33999991  54.65000153
C    12.35999966   3.79999995  54.97000122
C    12.72999954   4.42999983  56.19999695
C    11.68000031   4.76999998  57.02999878
C    10.39000034   4.26000023  56.77000046
C     9.30999947   4.51000023  57.67000198
C     8.02999973   4.05000019  57.50999832
C     7.75000000   3.28999996  56.33999634
C     8.73000050   3.00999999  55.41999817
C    10.06000042   3.48000002  55.59999847
C    14.18000031   4.53000021  56.35000229
C    14.89999962   3.98999977  55.25000000
C    16.28999901   3.91999984  55.20999908
C     6.35999966   2.76999998  56.04999924
H     5.94634581   3.37621713  55.24408722
H    10.88999939   2.86000013  53.69999695
H    11.87999916   5.28999996  57.95999908
H     9.50000000   5.07000017  58.57999802
H     7.22000027   4.19000006  58.22000122
H     8.64000034   2.48000002  54.47000122
H    16.77999878   3.42000008  54.36999893
H     5.75999975   2.94999981  56.95000076
H     6.30000019   1.69000006  55.87999725
S    14.29999924   1.28999996  50.79999924
C    11.59999943   1.11000001  51.59999847
C    12.93000031   0.85000002  51.83000183
C    13.43000031   0.32000002  53.06000137
C    12.48999977  -0.08000001  54.00000000
C    11.10999966   0.09000000  53.76999664
C    10.13000011  -0.34999999  54.71000290
C     8.80999947  -0.41000003  54.34999847
C     8.36000061   0.14999999  53.11999893
C     9.23999977   0.78000003  52.28000259
C    10.62999916   0.67000002  52.54000092
C    14.86999989   0.44000000  53.22999954
C    15.48999977   1.00000000  52.09000015
C    16.79000092   1.50000000  52.09999847
C     6.86999989   0.34999999  52.90000153
H     6.59190226   0.05764085  51.88743591
H    11.21999931   1.53999996  50.68000031
H    12.76000023  -0.48999998  54.97000122
H    10.52000046  -0.67000002  55.68000031
H     8.14999962  -0.71000004  55.14999771
H     8.97999954   1.23000002  51.31999969
H    17.21999931   2.00999999  51.24000168
H     6.40999985  -0.24000001  53.69999695
H     6.65000010   1.41000009  53.01000214
S    18.23999977   0.12000000  55.54999924
C    20.88000107   0.35999998  54.75999832
C    19.55999947   0.61000001  54.45999908
C    19.04999924   1.23000002  53.27000046
C    20.02000046   1.71000004  52.41000366
C    21.40000153   1.56000006  52.68000031
C    22.34000015   2.22000003  51.84000015
C    23.68999863   2.02999997  52.00000000
C    24.15999985   1.38999999  53.16999817
C    23.26000023   0.83999997  54.06000137
C    21.84999847   0.87000000  53.86000061
C    17.60000038   1.21000004  53.20000076
C    17.04000092   0.56000000  54.31999969
C    15.67000008   0.32999998  54.38000107
C    25.52999878   1.82999992  53.63999939
H    25.89308548   1.13230634  54.39464569
H    21.07999992  -0.23000000  55.63999939
H    19.81999969   2.25999999  51.49000168
H    21.97999954   2.93000007  51.10000229
H    24.26000214   2.72000027  51.38000107
H    23.57999992   0.48000002  55.02999878
H    15.26999950   0.01000000  55.34000015
H    25.55999947   2.82000017  54.10999680
H    26.19999886   1.92000008  52.78999710
