96

S    17.61999893   4.86000013  58.77999878
C    20.29999924   5.12000036  57.95999908
C    18.98999977   4.81999969  57.65999603
C    18.64999962   4.41000032  56.32999802
C    19.68000031   4.11000013  55.45999908
C    21.04999924   4.30000019  55.77999878
C    22.07999992   4.07999992  54.81999969
C    23.36000061   4.51999998  55.07999802
C    23.68999863   4.99000025  56.38000107
C    22.73999977   5.12000036  57.36000061
C    21.35999870   4.90000010  57.04000092
C    17.20000076   4.38000011  56.22000122
C    16.51000023   4.76000023  57.39999771
C    15.13000011   4.85000038  57.48000336
C    25.12000084   5.25000000  56.77999878
H    25.51892853   4.75133944  57.66334152
H    20.48999977   5.65000010  58.88999939
H    19.38999939   3.61999989  54.52999878
H    21.86000061   3.53999996  53.89999771
H    24.11999893   4.26999998  54.34999847
H    23.05999947   5.53999996  58.29999924
H    14.73999977   4.97000027  58.47999954
H    25.82999992   4.99000025  55.97999954
H    25.13999939   6.34999990  56.84999847
S    13.96000004   3.76999998  53.82999802
C    11.30000019   3.70000005  54.54999924
C    12.56999969   4.11000013  54.88999939
C    12.97999954   4.59000015  56.17000198
C    11.98999977   4.61000013  57.12999725
C    10.65000057   4.30000019  56.79999924
C     9.59999943   4.38000011  57.76000214
C     8.27000046   4.05999994  57.57999802
C     7.94000053   3.61999989  56.25999832
C     8.89000034   3.48000002  55.27999878
C    10.26000023   3.81000018  55.51000214
C    14.44000053   4.61000013  56.27999878
C    15.10000038   4.09999990  55.13999939
C    16.48999977   4.00999975  55.06999969
C     6.51999998   3.15000010  56.04999924
H     6.02091169   3.67760777  55.23720169
H    11.13999939   3.35000014  53.54000092
H    12.07999992   4.86999989  58.18000031
H     9.88000011   4.73000002  58.75000000
H     7.59999990   4.13999987  58.43000031
H     8.53999996   3.17999983  54.29999924
H    16.95000076   3.40000010  54.29999924
H     5.93999958   3.05999994  56.97000122
H     6.61000013   2.09000015  55.76000214
S    17.90999985   5.65999985  52.75000000
C    20.61000061   5.55000019  52.06999969
C    19.30999947   5.23999977  51.75000000
C    18.93000031   4.55999994  50.54999924
C    19.96000099   4.30999994  49.66999817
C    21.31000137   4.71000004  49.84000397
C    22.37999916   4.53000021  48.92000198
C    23.68999863   4.81999969  49.26000214
C    24.00000000   5.36000013  50.54000092
C    22.98999977   5.53999996  51.45000076
C    21.61999893   5.31000042  51.10000229
C    17.48999977   4.50000000  50.34999847
C    16.84000015   5.18000031  51.40999603
C    15.47000027   5.38999987  51.44000244
C    25.36999893   5.98000002  50.76000214
H    25.92574501   5.42425394  51.51524353
H    20.82999992   5.96000004  53.04999924
H    19.68000031   3.73000002  48.79000092
H    22.11000061   4.15000010  47.94000244
H    24.41999817   4.65000010  48.47999954
H    23.11000061   5.88000011  52.47000122
H    15.06999969   5.88000011  52.32999802
H    25.88999939   6.09000015  49.79999924
H    25.17000008   7.02000046  51.03000259
S    14.22999954   3.50000000  48.11999893
C    11.54999924   3.73000002  48.86000061
C    12.86999893   4.05999994  49.09999847
C    13.26000023   4.85000038  50.21999741
C    12.31999969   5.19999981  51.17000198
C    10.97000027   4.82999992  50.93999863
C     9.94999981   5.17000008  51.88000107
C     8.65999985   4.72000027  51.72000122
C     8.26000023   4.07999992  50.52000046
C     9.19000053   3.68999982  49.58000183
C    10.53999996   4.09999990  49.78000259
C    14.70999908   4.86000013  50.38999939
C    15.34000015   4.26999998  49.27000046
C    16.70999908   4.02999973  49.29000092
C     6.84999990   3.53999996  50.45999908
H     6.26587868   4.13124466  49.75477982
H    11.18999958   3.07000017  48.06999969
H    12.61999989   5.45000029  52.18999863
H    10.29999924   5.68000031  52.77000046
H     7.96999979   4.81999969  52.55000305
H     8.85999966   3.09999990  48.74000168
H    17.13000107   3.60000014  48.37999725
H     6.46000004   3.61999989  51.49000168
H     6.98000002   2.48000002  50.21999741
