96

S    17.42000008   4.88999987  58.75999832
C    20.06999969   4.63000011  58.08000183
C    18.76000023   4.38000011  57.71999741
C    18.37000084   4.03999996  56.38000107
C    19.37000084   3.81000018  55.45000076
C    20.69999886   4.11000013  55.79999924
C    21.71999931   4.01999998  54.80999756
C    23.02999878   4.38000011  55.02999878
C    23.35000038   4.92000008  56.31000137
C    22.43000031   5.01999950  57.32999802
C    21.07999992   4.63999987  57.09000015
C    16.92000008   3.91000009  56.36000061
C    16.25000000   4.41000032  57.50000000
C    14.88999939   4.67999983  57.54000092
C    24.77000046   5.32999992  56.62000275
H    25.21726036   4.62006378  57.31573868
H    20.29000092   4.97000027  59.09000015
H    19.12999916   3.45000005  54.45000076
H    21.35999870   3.76999998  53.81999969
H    23.85000038   4.21000004  54.34000015
H    22.78000069   5.27999973  58.31999969
H    14.40999985   5.18000031  58.37999725
H    25.32999992   5.27999973  55.68000031
H    24.84999847   6.34000015  57.02000046
S    13.61999989   3.72000003  53.94000244
C    10.98000050   3.38999987  54.73999786
C    12.23999977   3.82999992  55.05000305
C    12.64999962   4.34999990  56.31999969
C    11.64999962   4.51000023  57.27000427
C    10.31999969   4.13000011  56.98999786
C     9.36999989   4.13999987  58.04999924
C     8.05000019   3.94000006  57.72999573
C     7.72000027   3.45999980  56.43000031
C     8.63000011   3.15000010  55.45000076
C     9.96000004   3.58999991  55.70999908
C    14.09999943   4.32999992  56.45000076
C    14.77000046   3.86999989  55.28999710
C    16.14999962   3.72000003  55.20999908
C     6.30999994   2.94999981  56.26999664
H     5.68323183   3.59813523  55.65747452
H    10.76000023   2.79999995  53.85000229
H    11.84999943   4.88000011  58.27000046
H     9.67000008   4.42999983  59.06000137
H     7.27999973   3.97000027  58.48999786
H     8.43999958   2.54999995  54.55999756
H    16.59000015   3.63000011  54.22000122
H     5.92000008   2.72000027  57.27000427
H     6.38000011   1.98000002  55.76000214
S    14.14999962   1.65999997  51.05999756
C    11.46999931   0.92000002  51.58000183
C    12.81000042   0.87000000  51.90000153
C    13.23999977   0.29999998  53.13999939
C    12.30999947  -0.25000000  54.01000214
C    10.93000031  -0.24000001  53.68999863
C     9.94000053  -0.75000000  54.56999969
C     8.59000015  -0.65999997  54.29999924
C     8.15999985   0.05000000  53.15000153
C     9.10000038   0.50000000  52.25999832
C    10.50000000   0.32999998  52.43999863
C    14.65999985   0.50999999  53.37999725
C    15.31000042   1.12000000  52.28000259
C    16.67000008   1.38999999  52.25999832
C     6.69000053   0.34999999  52.90999985
H     6.20542097  -0.19158849  52.09761810
H    11.21999931   1.49000001  50.68999863
H    12.60000038  -0.75000000  54.93000031
H    10.31000042  -1.25999999  55.45000076
H     7.86999989  -0.96000004  55.06000137
H     8.89999962   1.18000007  51.44000244
H    16.95999908   1.92000008  51.36000061
H     6.15000010   0.22000000  53.85000229
H     6.57999992   1.43000007  52.75000000
S    17.94000053  -0.19999999  55.66999817
C    20.65000153   0.29999998  55.06999969
C    19.31999969   0.48999998  54.79000092
C    18.82999992   1.13000000  53.60000229
C    19.84000015   1.46000004  52.71999741
C    21.22999954   1.26999998  52.90000153
C    22.18000031   1.84000003  52.00000000
C    23.51000023   1.87999988  52.34000397
C    23.92999840   1.31999993  53.56999969
C    23.05000114   0.74000001  54.45999908
C    21.65999985   0.71000004  54.15000153
C    17.38000107   1.10000002  53.43000031
C    16.75000000   0.44000000  54.51000214
C    15.39000034   0.14999999  54.52999878
C    25.35000038   1.61000001  53.99000168
H    25.86903572   1.02697372  54.75077820
H    20.88999939  -0.19999999  56.00000000
H    19.51000023   1.81999993  51.75000000
H    21.90000153   2.50999975  51.18999863
H    24.11000061   2.61000013  51.79999924
H    23.26999855   0.65999997  55.52000046
H    15.03000069  -0.50999999  55.31000137
H    25.38999939   2.66999984  54.27999878
H    25.92000008   1.57000005  53.04999924
