96

S    16.94000053   5.44000053  58.67000198
C    19.70000076   5.33999968  58.02999878
C    18.38999939   5.10999966  57.69000244
C    18.04999924   4.56999969  56.40999603
C    19.05999947   4.28999996  55.50000000
C    20.40999985   4.53000021  55.84999847
C    21.42999840   4.30000019  54.87999725
C    22.73999977   4.61999989  55.13000107
C    23.09000015   5.21000004  56.38000107
C    22.11999893   5.47999954  57.30999756
C    20.75000000   5.15999985  57.09999847
C    16.61000061   4.51000023  56.20999908
C    15.88000107   4.86000013  57.36999893
C    14.50000000   5.00000000  57.51999664
C    24.54000092   5.58000040  56.62000275
H    25.06004333   4.93172646  57.32526398
H    19.90999985   5.88000011  58.95000076
H    18.82999992   3.76999998  54.56999969
H    21.09000015   4.03999996  53.88000107
H    23.45999908   4.42000008  54.34000015
H    22.36000061   5.98999977  58.23999786
H    14.01999950   5.49000025  58.36000061
H    24.97999954   5.68000031  55.61999893
H    24.57999992   6.61000013  57.00000000
S    13.36999989   3.78999996  53.90999603
C    10.72000027   3.68999982  54.65000153
C    11.97999954   4.13999987  54.95999908
C    12.34000015   4.73000002  56.20999908
C    11.36999989   4.76999998  57.19999695
C    10.03000069   4.42999983  56.88999939
C     9.02999973   4.55000019  57.90000153
C     7.75000000   4.09999990  57.67000198
C     7.44000006   3.52999973  56.39999771
C     8.36999989   3.38999987  55.40000153
C     9.71000004   3.81000018  55.63999939
C    13.78999901   4.73000002  56.33999634
C    14.48999977   4.23000002  55.20999908
C    15.86999989   4.11999989  55.08999634
C     5.98000002   3.25000000  56.12999725
H     5.61726236   3.83322501  55.28361130
H    10.46000004   3.03999996  53.81000137
H    11.76000023   5.03000021  58.18000031
H     9.40999985   4.90999985  58.85000229
H     7.03000021   4.21999979  58.47000122
H     8.00000000   3.23000002  54.38999939
H    16.22999954   3.81999993  54.10999680
H     5.32999992   3.31999993  57.01000214
H     5.95000029   2.17999983  55.87999725
S    13.96999931   1.79000008  50.90999985
C    11.31000042   1.19999993  51.55000305
C    12.64999962   1.03999996  51.83000183
C    13.07999992   0.48999998  53.08000183
C    12.20999908   0.01000000  54.03999710
C    10.82999992   0.08000001  53.72000122
C     9.86999989  -0.23000000  54.72999954
C     8.55000019   0.06000000  54.51000214
C     8.07999992   0.59999996  53.27999878
C     9.00000000   0.97000003  52.31999969
C    10.39000034   0.71999997  52.50999832
C    14.52999973   0.63000000  53.20999908
C    15.15999985   1.30999994  52.12999725
C    16.51000023   1.63000000  52.15999985
C     6.65999985   1.08999991  53.09000015
H     6.20948887   0.60373431  52.22473526
H    10.98999977   1.82999992  50.72999954
H    12.42000008  -0.31000000  55.05000305
H    10.07999992  -0.57999998  55.73999786
H     7.83999968  -0.04000000  55.33000183
H     8.76999950   1.56000006  51.43000031
H    16.93000031   2.39999986  51.52000046
H     6.09000015   0.74000001  53.95999908
H     6.60000038   2.17999983  52.98999786
S    17.76000023   0.19000000  55.63999939
C    20.45999908   0.59000003  54.97000122
C    19.12999916   0.76999998  54.66999817
C    18.71000099   1.25000000  53.39000320
C    19.63999939   1.74000001  52.48000336
C    21.02000046   1.67999995  52.77999878
C    22.06000137   2.04999995  51.88000107
C    23.39999962   2.04999995  52.22000122
C    23.75999832   1.23000002  53.31999969
C    22.79000092   0.83999997  54.22000122
C    21.38999939   1.00999999  54.00000000
C    17.28000069   1.05999994  53.18000031
C    16.63999939   0.46000001  54.29000092
C    15.26999950   0.20999999  54.31999969
C    25.22999954   0.97000003  53.55999756
H    25.67260742   1.41260767  54.45235062
H    20.69999886   0.03000000  55.86999893
H    19.34999847   2.07999992  51.49000168
H    21.68999863   2.23000002  50.87999725
H    24.06999969   2.34999990  51.42000198
H    23.15999985   0.34999999  55.11000061
H    14.77000046  -0.17000002  55.20000076
H    25.79000092   1.24000001  52.64999771
H    25.36000061  -0.12000000  53.60000229
