96

S    16.88999939   4.86000013  58.94000244
C    19.63999939   4.72000027  58.22999954
C    18.30999947   4.59999990  57.90000153
C    17.97000122   4.09999990  56.60999680
C    19.02000046   3.81999993  55.75000000
C    20.38000107   4.03999996  56.06999969
C    21.42000008   3.97000027  55.11000061
C    22.69000053   4.42000008  55.40000153
C    22.98000145   4.97000027  56.68000031
C    22.06000137   5.00999975  57.69000244
C    20.73999786   4.61000013  57.34000397
C    16.52000046   4.05999994  56.42000198
C    15.81999969   4.53000021  57.56000137
C    14.45000076   4.74000025  57.62000275
C    24.38999939   5.46000004  56.93000031
H    24.71801376   5.06780910  57.89265060
H    19.88000107   5.10999966  59.22000122
H    18.78999901   3.31999993  54.81999969
H    21.14000130   3.67000008  54.09999847
H    23.38000107   4.59999990  54.58000183
H    22.32000160   5.51000023  58.62999725
H    14.00000000   5.15999985  58.52000427
H    25.12000084   5.09000015  56.18999863
H    24.40999985   6.54999971  56.91999817
S    13.22000027   3.12999988  54.27999878
C    10.53999996   3.05000019  54.92000198
C    11.79999924   3.42000008  55.30000305
C    12.18999958   4.00999975  56.55000305
C    11.21000099   4.11000013  57.50999832
C     9.86999989   3.79999995  57.16999817
C     8.73999977   4.07000017  57.98999786
C     7.44000006   3.88000011  57.58999634
C     7.13000011   3.40000010  56.29000092
C     8.17000008   3.09999990  55.45000076
C     9.52000046   3.23000002  55.89000320
C    13.61999989   4.30000019  56.58000183
C    14.34999943   3.77999997  55.47999954
C    15.72999954   3.71000004  55.31999969
C     5.75999975   2.93000007  55.84999847
H     5.31087828   3.62150502  55.13710785
H    10.27999973   2.77999997  53.89999771
H    11.49000072   4.48999977  58.48999786
H     8.89999962   4.55999994  58.95000076
H     6.71999979   4.02999973  58.39000320
H     7.92000008   2.82000017  54.43000031
H    16.13000107   3.23000002  54.43000031
H     5.05999994   2.75000000  56.66999817
H     5.97000027   2.02999997  55.24000168
S    14.27999973   1.61000001  51.11000061
C    11.57999992   0.94999999  51.63999939
C    12.92000008   0.85000002  51.93999863
C    13.35999966   0.14000000  53.09999847
C    12.46000099  -0.44000000  53.99000168
C    11.07999992  -0.25000000  53.74000168
C    10.06000042  -0.82999998  54.54999924
C     8.71999931  -0.69000000  54.29000092
C     8.28999996   0.14000000  53.22000122
C     9.22999954   0.63000000  52.35000229
C    10.62999916   0.43000001  52.55000305
C    14.80000019   0.17000002  53.27999878
C    15.43000031   0.99000001  52.30999756
C    16.79999924   1.24000001  52.29000092
C     6.80000019   0.34999999  53.09000015
H     6.33860064  -0.11139968  52.21688843
H    11.36000061   1.48000002  50.72000122
H    12.65999985  -1.02999997  54.86999893
H    10.42000008  -1.38000000  55.41999817
H     7.97999954  -1.00999999  55.01999664
H     8.98999977   1.28000009  51.51000214
H    17.35999870   1.58999991  51.43000031
H     6.32000017  -0.22000000  53.89999771
H     6.50000000   1.39999998  53.20000076
S    18.01000023  -0.28999999  55.80999756
C    20.69999886   0.20999999  55.10000229
C    19.36000061   0.39000002  54.86999893
C    18.94000053   0.97000003  53.63999939
C    19.85000038   1.50999999  52.76000214
C    21.24000168   1.26999998  52.90999985
C    22.26000023   1.72999990  52.02999878
C    23.57999992   1.63000000  52.39999771
C    24.04000092   0.97999996  53.57999802
C    23.03999901   0.50000000  54.38999939
C    21.64999962   0.59000003  54.10999680
C    17.48999977   0.88999999  53.46000290
C    16.88999939   0.14999999  54.50000000
C    15.55999947  -0.25000000  54.36999893
C    25.52000046   0.76999998  53.85000229
H    25.74741745   1.06848443  54.87337494
H    20.92000008  -0.28999999  56.04000092
H    19.42000008   2.07999992  51.93999863
H    21.90000153   2.23000002  51.13999939
H    24.31999969   2.01999998  51.72000122
H    23.32999992  -0.12000000  55.22999573
H    15.10000038  -0.79000002  55.19000244
H    26.09000015   1.47000003  53.22999954
H    25.85000038  -0.25000000  53.61999893
