96

S    16.97999954   4.97000027  58.83999634
C    19.70000076   5.12000036  58.15999985
C    18.40999985   4.79999971  57.80000305
C    18.06999969   4.33999968  56.49000168
C    19.11000061   4.33999968  55.56999969
C    20.42000008   4.75000000  55.87999725
C    21.50000000   4.61000013  54.94999695
C    22.78000069   4.67999983  55.45000076
C    23.12999916   4.98000002  56.79999924
C    22.11000061   5.29999971  57.65999603
C    20.76000023   5.14999962  57.22000122
C    16.63999939   4.21999979  56.25999832
C    15.95999908   4.50000000  57.47000122
C    14.56999969   4.51999998  57.56999969
C    24.57999992   5.25000000  57.09000015
H    25.13253403   4.70455074  57.85504532
H    19.98999977   5.40999985  59.15999985
H    18.81999969   3.88000011  54.62999725
H    21.14999962   4.21999979  54.00000000
H    23.59999847   4.51999998  54.75999832
H    22.29999924   5.45000029  58.72000122
H    14.19000053   4.86000013  58.53000259
H    25.10999870   5.14999962  56.12999725
H    24.63999939   6.32000017  57.35000229
S    13.38999939   3.53999996  53.88000107
C    10.65999985   3.65999985  54.54000092
C    11.97000027   3.84000015  54.91000366
C    12.34000015   4.19999981  56.24000168
C    11.30000019   4.46000004  57.11999893
C     9.96000004   4.13000011  56.79999924
C     8.93999958   4.23000002  57.77999878
C     7.63999987   3.88000011  57.48000336
C     7.30999994   3.38999987  56.18999863
C     8.23999977   3.38000011  55.18000031
C     9.59000015   3.74000025  55.47000122
C    13.78000069   4.23000002  56.45000076
C    14.45000076   3.91000009  55.25000000
C    15.84000015   3.96000004  55.13999939
C     5.88999987   2.91000009  55.94999695
H     5.47031641   3.39370275  55.06795502
H    10.36000061   3.28999996  53.55999756
H    11.54000092   4.74000025  58.13999939
H     9.18000031   4.61000013  58.76999664
H     6.85999966   3.81999993  58.22999954
H     7.86000013   3.01999998  54.22000122
H    16.31000137   3.75000000  54.19000244
H     5.26000023   3.21000004  56.79000092
H     5.96000004   1.81999993  55.83000183
S    17.71000099   5.40999985  52.55000305
C    20.40999985   5.47999954  51.86000061
C    19.12999916   5.13999987  51.51000214
C    18.76000023   4.73000002  50.19000244
C    19.78000069   4.65999985  49.25000000
C    21.11999893   4.97000027  49.58000183
C    22.19000053   4.94000006  48.64999771
C    23.48999977   5.10999966  49.06000137
C    23.77000046   5.63000011  50.34999847
C    22.78000069   5.80999947  51.27999878
C    21.45999908   5.42000008  50.90999985
C    17.32999992   4.53999996  50.00000000
C    16.67000008   4.92999983  51.18999863
C    15.27999973   4.92000008  51.18999863
C    25.17999840   5.98000002  50.77999878
H    25.55018044   5.35353994  51.59154892
H    20.65999985   5.89999962  52.83000183
H    19.61000061   4.21000004  48.27999878
H    22.01999855   4.78999996  47.57999802
H    24.23000145   5.01999950  48.27000046
H    22.93000031   6.19000006  52.29000092
H    14.65000057   5.07999992  52.05999756
H    25.81000137   5.80999947  49.88999939
H    25.31999969   7.00999975  51.11000061
S    14.15999985   3.98999977  47.48000336
C    11.38000011   4.09000015  48.22999954
C    12.71999931   4.25000000  48.48999786
C    13.15999985   4.51000023  49.82999802
C    12.23000050   4.75000000  50.81999969
C    10.85000038   4.57999992  50.54000092
C     9.82999992   4.77999973  51.51000214
C     8.50000000   4.59999990  51.18999863
C     8.03999996   4.23000002  49.89999771
C     9.01000023   3.95000005  48.95000076
C    10.38000011   4.25000000  49.22000122
C    14.59000015   4.63999987  50.00000000
C    15.29000092   4.35999966  48.80000305
C    16.67000008   4.21000004  48.81000137
C     6.57000017   3.96000004  49.68000031
H     6.09328938   4.41536522  48.81196213
H    11.05000019   3.63000011  47.29999924
H    12.53999901   4.80999994  51.86000061
H    10.19000053   5.19999981  52.43999863
H     7.83999968   4.80999994  52.02000046
H     8.64999962   3.56999993  48.00000000
H    17.15999985   3.95000005  47.87000275
H     6.02999973   4.30999994  50.56999969
H     6.67000008   2.86999989  49.68000031
