96

S    17.46000099   5.26999998  58.80000305
C    20.13999939   5.40999985  58.11000061
C    18.86999893   4.99000025  57.76000214
C    18.64999962   4.39000034  56.47999573
C    19.68000031   4.23999977  55.56999969
C    20.98999977   4.61999989  55.93000031
C    22.07999992   4.41000032  55.02999878
C    23.34000015   4.78999996  55.44000244
C    23.59999847   5.31000042  56.72999954
C    22.56999969   5.46000004  57.63000107
C    21.22999954   5.13999987  57.25000000
C    17.20000076   4.38000011  56.30000305
C    16.44000053   4.76000023  57.43999863
C    15.06999969   4.98000002  57.41000366
C    25.00999832   5.61999989  57.16999817
H    25.40637970   5.03250837  57.99814987
H    20.26000023   5.97000027  59.02999878
H    19.47000122   3.97000027  54.54000092
H    21.93000031   4.02999973  54.02000046
H    24.21999931   4.59999990  54.82999802
H    22.67999840   5.82000017  58.64999771
H    14.57999992   5.32999992  58.31999969
H    25.62999916   5.49000025  56.27999878
H    25.07999802   6.67999983  57.43000031
S    14.00000000   3.84999990  53.77999878
C    11.25000000   3.95000005  54.38000107
C    12.55000019   4.23000002  54.72999954
C    12.93000031   4.67000008  56.03000259
C    11.90999985   4.97000027  56.91999817
C    10.55999947   4.81999969  56.56000137
C     9.52999973   4.94000006  57.52999878
C     8.21000004   4.65999985  57.28000259
C     7.90000010   4.19000006  55.97000122
C     8.85000038   3.91000009  55.00999832
C    10.19999981   4.28000021  55.27000046
C    14.37999916   4.73000002  56.22000122
C    15.11000061   4.34999990  55.06999969
C    16.50000000   4.23000002  55.11000061
C     6.48000002   3.75999975  55.72999954
H     6.07372236   4.25180960  54.84616470
H    11.06999969   3.38999987  53.46000290
H    12.18999958   5.33999968  57.90999985
H     9.82999992   5.25000000  58.53000259
H     7.32999992   4.88999987  57.87000275
H     8.57999992   3.38000011  54.09999847
H    17.09000015   3.91000009  54.25000000
H     6.00000000   4.07000017  56.65999985
H     6.42000008   2.66999984  55.61999893
S    14.11000061   1.89999998  50.97999954
C    11.46999931   1.29999995  51.68000031
C    12.81000042   1.14999998  51.91999817
C    13.26000023   0.48999998  53.11000061
C    12.31999969   0.02000000  54.01000214
C    10.95999908   0.35999998  53.83999634
C    10.03000069  -0.20999999  54.75000000
C     8.69000053  -0.08000001  54.47000122
C     8.17000008   0.68000007  53.39000320
C     9.06000042   1.13000000  52.43999863
C    10.47000027   0.97999996  52.63000107
C    14.70000076   0.63000000  53.29000092
C    15.26999950   1.28000009  52.15999985
C    16.61999893   1.64000010  52.16999817
C     6.67000008   0.69000000  53.20000076
H     6.33408499   0.09678876  52.34949493
H    11.14999962   1.65000010  50.70000076
H    12.68000031  -0.46000001  54.91000366
H    10.40999985  -0.90999997  55.50000000
H     7.92999983  -0.54000002  55.08999634
H     8.82999992   1.43999994  51.43000031
H    16.97000122   2.34999990  51.44000244
H     6.21999979   0.25000000  54.09999847
H     6.21000004   1.67999995  53.09999847
S    17.90999985   0.39000002  55.70999908
C    20.61000061   0.74000001  54.89999771
C    19.26000023   0.94999999  54.71000290
C    18.81999969   1.44999993  53.43999863
C    19.76000023   1.80999994  52.50000000
C    21.14999962   1.87999988  52.77000046
C    22.19000053   2.26999998  51.88999939
C    23.52000046   2.29999995  52.27000427
C    23.88999939   1.72000003  53.50999832
C    22.95000076   1.18000007  54.34999847
C    21.56999969   1.25000000  53.99000168
C    17.36999893   1.31999993  53.30999756
C    16.73999977   0.69999999  54.40999985
C    15.39000034   0.35999998  54.47000122
C    25.34000015   1.39999998  53.77999878
H    25.60233688   1.45672143  54.83643723
H    20.86999893   0.31000000  55.86000061
H    19.36000061   2.25000000  51.59000015
H    21.90000153   2.50000000  50.86999893
H    24.30999947   2.39999986  51.53999710
H    23.12999916   0.63000000  55.27000046
H    14.85999966  -0.01000000  55.34999847
H    25.98999977   2.11999989  53.27000046
H    25.39999962   0.34000003  53.47000122
