96

S    17.45000076   4.67999983  58.92000198
C    20.12000084   5.09999990  58.06999969
C    18.82999992   4.69999981  57.80000305
C    18.42000008   4.40000010  56.45999908
C    19.38999939   4.23999977  55.47999954
C    20.75000000   4.51000023  55.75000000
C    21.80999947   4.09999990  54.89999771
C    23.12999916   4.26000023  55.26000214
C    23.44000053   4.94000006  56.45999908
C    22.46000099   5.38000011  57.31999969
C    21.11000061   5.00000000  57.05999756
C    16.98999977   4.15000010  56.36000061
C    16.31999969   4.41000032  57.57999802
C    14.93000031   4.48999977  57.67000198
C    24.87999916   5.23000002  56.84000015
H    25.27990150   4.58015680  57.61838531
H    20.38999939   5.51000023  59.03999710
H    19.14999962   3.63000011  54.61999893
H    21.40999985   3.58000016  54.02999878
H    23.90999985   3.84999990  54.62999725
H    22.72000122   5.84000015  58.27000046
H    14.45000076   4.59999990  58.63999939
H    25.48999977   5.36000013  55.93999863
H    24.86000061   6.24000025  57.28000259
S    13.73999977   3.74000025  53.94000244
C    11.00999928   3.68000007  54.65999985
C    12.31999969   4.00999975  54.95999908
C    12.72999954   4.40000010  56.26999664
C    11.77999973   4.55000019  57.25999832
C    10.40999985   4.28999996  56.97999954
C     9.35999966   4.39000034  57.94000244
C     8.03999996   4.09999990  57.69000244
C     7.68000031   3.73000002  56.37000275
C     8.65999985   3.56999993  55.40999985
C    10.03000069   3.81999993  55.68000031
C    14.15999985   4.25000000  56.52999878
C    14.82999992   3.93000007  55.33000183
C    16.21999931   3.78999996  55.25000000
C     6.25999975   3.32999992  56.05999756
H     5.75008869   4.05237436  55.42260742
H    10.65000057   3.25999999  53.73000336
H    12.07999992   4.88999987  58.25000000
H     9.68999958   4.61999989  58.95000076
H     7.34000015   4.23000002  58.50999832
H     8.40999985   3.05999994  54.47999954
H    16.55999947   3.56999993  54.25000000
H     5.71000004   3.17999983  56.98999786
H     6.34999990   2.42000008  55.45000076
S    17.82999992   5.28999996  52.70000076
C    20.53999901   5.35000038  51.93000031
C    19.22999954   5.05999994  51.63999939
C    18.88000107   4.55999994  50.34000015
C    19.88000107   4.28999996  49.41999817
C    21.21999931   4.63999987  49.68000031
C    22.27000046   4.57999992  48.72000122
C    23.57000160   4.86999989  49.09000015
C    23.95999908   5.23999977  50.40000153
C    22.93999863   5.36000013  51.31000137
C    21.56999969   5.10999966  50.98999786
C    17.43999863   4.36999989  50.26000214
C    16.72999954   4.76999998  51.42000198
C    15.36000061   5.00999975  51.44000244
C    25.38999939   5.60999966  50.72999954
H    25.78199005   5.13248539  51.62800980
H    20.86000061   5.82999992  52.85999680
H    19.63999939   3.81000018  48.46000290
H    22.06000137   4.32999992  47.68000031
H    24.27000046   4.84000015  48.26000214
H    23.22000122   5.77000046  52.27000427
H    14.93999958   5.51000023  52.30999756
H    25.97999954   5.35000038  49.84000397
H    25.25000000   6.70000029  50.79999924
S    14.21000004   3.79999995  47.88000107
C    11.46999931   4.05999994  48.54999924
C    12.79999924   4.28999996  48.82999802
C    13.17999935   4.81999969  50.11000061
C    12.20999908   5.17000008  51.03000259
C    10.84000015   4.98000002  50.73999786
C     9.85000038   4.99000025  51.77000046
C     8.52999973   4.65000010  51.56999969
C     8.15999985   4.15000010  50.30000305
C     9.09000015   4.05999994  49.29000092
C    10.44999981   4.44000006  49.47000122
C    14.60999966   4.65000010  50.31000137
C    15.32999992   4.09999990  49.22000122
C    16.72000122   3.98000002  49.13000107
C     6.74000025   3.68000007  50.07999802
H     6.25498581   4.18641186  49.24548721
H    11.21999931   3.51999998  47.64999771
H    12.46000099   5.27999973  52.08000183
H    10.11000061   5.46000004  52.70999908
H     7.83999968   4.88000011  52.37999725
H     8.92000008   3.65000010  48.29999924
H    17.21999931   3.71000004  48.20999908
H     6.23000050   3.84999990  51.03000259
H     6.81999969   2.59000015  49.93000031
