96

S    17.10000038   4.61999989  58.79000092
C    19.78999901   4.99000025  58.06999969
C    18.53000069   4.53000021  57.75000000
C    18.15000153   4.00000000  56.47999573
C    19.10000038   4.00000000  55.47000122
C    20.43999863   4.33999968  55.76000214
C    21.53000069   4.26999998  54.85000229
C    22.81999969   4.65000010  55.13999939
C    23.15000153   4.97000027  56.47999573
C    22.15999985   4.96000004  57.43999863
C    20.79999924   4.78999996  57.09000015
C    16.70999908   3.94000006  56.30000305
C    15.97000027   4.32999992  57.44999695
C    14.59000015   4.48000002  57.54000092
C    24.54999924   5.36000013  56.90999985
H    24.88969803   4.70183706  57.70970535
H    20.00999832   5.21000004  59.10999680
H    18.86000061   3.58000016  54.50000000
H    21.40000153   3.91999984  53.81999969
H    23.61000061   4.53999996  54.40999985
H    22.40999985   5.26000023  58.46000290
H    14.11000061   4.72000027  58.47000122
H    25.10999870   5.23000002  55.97999954
H    24.61999893   6.40999985  57.19999695
S    13.67000008   3.50000000  53.79000092
C    10.92000008   3.33999991  54.38999939
C    12.20000076   3.65999985  54.78000259
C    12.46000099   4.09000015  56.11000061
C    11.44000053   4.28999996  57.02999878
C    10.11000061   4.01999998  56.62000275
C     9.02000046   4.19999981  57.50999832
C     7.73000002   3.95000005  57.09000015
C     7.46000004   3.38999987  55.80999756
C     8.51000023   3.25000000  54.93000031
C     9.85000038   3.54999995  55.28999710
C    13.89999962   4.19999981  56.35000229
C    14.65999985   3.78999996  55.22999573
C    16.03999901   3.72000003  55.07999802
C     6.00000000   3.10999990  55.54000092
H     5.57306004   3.58675003  54.65765762
H    10.71000004   2.84999990  53.43999863
H    11.65999985   4.63000011  58.04000092
H     9.15000057   4.46999979  58.55999756
H     6.90999985   4.09000015  57.78999710
H     8.32999992   2.79000020  53.95999908
H    16.68000031   3.49000001  54.23999786
H     5.47999954   3.28999996  56.49000168
H     5.86999989   2.03999996  55.37000275
S    17.59000015   5.59999990  52.77999878
C    20.26000023   5.73000002  52.09000015
C    19.00000000   5.31000042  51.73999786
C    18.63000107   4.75000000  50.47000122
C    19.62000084   4.59999990  49.52000046
C    20.89999962   5.14999962  49.79000092
C    22.01000023   5.01999950  48.92000198
C    23.29000092   5.31000042  49.33000183
C    23.59000015   5.93999958  50.56999969
C    22.56999969   6.01999998  51.47999573
C    21.24000168   5.71000004  51.06999969
C    17.19000053   4.67999983  50.31999969
C    16.47999954   5.13999987  51.46999741
C    15.11999989   5.40000010  51.43000031
C    25.00999832   6.23000050  51.00999832
H    25.43125153   5.54456997  51.74541092
H    20.48000145   6.02999973  53.11999893
H    19.42000008   4.21999979  48.52000427
H    21.86000061   4.51999998  47.97000122
H    24.10000038   5.00000000  48.68000031
H    22.69000053   6.37000036  52.50999832
H    14.53999996   5.51000023  52.34000397
H    25.73999786   6.26999950  50.18000031
H    25.10999870   7.26000023  51.37000275
S    14.01000023   4.26999998  47.80000305
C    11.28000069   4.11000013  48.47000122
C    12.55000019   4.51000023  48.79000092
C    12.92000008   4.90999985  50.12000275
C    11.92000008   4.96000004  51.06999969
C    10.57000065   4.67000008  50.76000214
C     9.47000027   4.79999971  51.65999985
C     8.21000004   4.33999968  51.36000061
C     7.95000029   3.95000005  50.01999664
C     8.93999958   3.75999975  49.08000183
C    10.25000000   4.18000031  49.43999863
C    14.35999966   5.05999994  50.30000305
C    15.08999920   4.61000013  49.16999817
C    16.46000099   4.42000008  49.15000153
C     6.52999973   3.51999998  49.72000122
H     6.05338192   4.11043692  48.93749237
H    11.05000019   3.65000010  47.50999832
H    12.22000027   5.15999985  52.09999847
H     9.59999943   5.22000027  52.64999771
H     7.35000038   4.30000019  52.02000046
H     8.73999977   3.35999990  48.09000015
H    16.90999985   4.02999973  48.23999786
H     5.97000027   3.53999996  50.65999985
H     6.61000013   2.45000005  49.47000122
