96

S    17.13999939   5.36000013  58.68000031
C    19.85999870   5.23000002  58.00000000
C    18.54999924   4.94999981  57.69000244
C    18.17000008   4.42999983  56.40999603
C    19.12999916   4.19999981  55.44000244
C    20.48000145   4.57999992  55.66999817
C    21.56999969   4.44999981  54.78000259
C    22.86999893   4.80999994  55.02999878
C    23.18000031   5.32999992  56.31999969
C    22.19000053   5.35000038  57.28000259
C    20.84000015   5.00000000  57.01000214
C    16.72000122   4.33999968  56.30000305
C    16.00000000   4.88999987  57.39999771
C    14.63999939   5.07999992  57.57999802
C    24.56999969   5.75999975  56.70999908
H    25.02532578   5.16238499  57.49970627
H    20.06000137   5.84000015  58.88000107
H    18.78000069   3.79999995  54.50000000
H    21.30000114   4.18000031  53.75999832
H    23.64000130   4.59000015  54.29999924
H    22.36000061   5.86000013  58.22000122
H    14.25000000   5.51999998  58.50000000
H    25.28000069   5.75000000  55.86999893
H    24.44000053   6.80000019  57.04000092
S    13.35999966   3.58999991  54.15999985
C    10.62000084   3.77999997  54.78000259
C    11.94000053   3.97000027  55.14999771
C    12.36999989   4.51000023  56.39999771
C    11.40999985   4.78999996  57.36000061
C    10.06000042   4.50000000  57.08000183
C     9.02000046   4.76999998  58.02000046
C     7.68000031   4.59000015  57.77000046
C     7.32999992   3.88999987  56.58000183
C     8.27999973   3.68999982  55.59999847
C     9.64999962   4.01999998  55.79000092
C    13.81000042   4.65999985  56.53999710
C    14.48999977   4.15000010  55.40000153
C    15.85999966   3.97000027  55.26000214
C     5.91000032   3.45999980  56.31000137
H     5.44137287   4.04933405  55.52185440
H    10.32999992   3.17000008  53.93000031
H    11.72999954   5.22000027  58.30999756
H     9.32999992   5.27999973  58.92000198
H     6.86999989   4.98000002  58.37999725
H     7.97999954   3.21000004  54.66999817
H    16.31999969   3.63000011  54.34000015
H     5.40999985   3.55999994  57.28000259
H     6.00000000   2.40999985  56.00999832
S    14.32000065   1.80000007  51.07999802
C    11.64000034   1.62000000  51.77999878
C    12.92000008   1.16999996  51.97000122
C    13.28999996   0.41999999  53.13000107
C    12.32999992  -0.14000000  53.95999908
C    10.98000050   0.19999999  53.67000198
C     9.94000053  -0.32000002  54.48999786
C     8.61999989   0.02000000  54.29999924
C     8.23999977   0.83999997  53.20000076
C     9.22999954   1.35000002  52.37999725
C    10.60999966   1.07000005  52.57999802
C    14.72000027   0.51999998  53.36999893
C    15.42000008   1.18000007  52.31999969
C    16.76000023   1.54999995  52.42000198
C     6.84000015   1.38000000  53.08000183
H     6.31356382   0.95315957  52.22632217
H    11.31000042   2.11999989  50.86999893
H    12.57999992  -0.75000000  54.81999969
H    10.21999931  -0.93000001  55.34000015
H     7.90999985  -0.25999999  55.06999969
H     8.90999985   2.00000000  51.56999969
H    17.21999931   2.15000010  51.63999939
H     6.32999992   1.08999991  54.02000046
H     6.81999969   2.47000003  52.97999954
S    18.02999878  -0.01000000  55.79999924
C    20.72999954   0.69000000  55.22999573
C    19.37999916   0.79000002  54.97000122
C    18.94000053   1.36999989  53.74000168
C    19.85999870   1.71000004  52.77000046
C    21.25000000   1.72000003  53.02000046
C    22.25000000   2.07999992  52.06999969
C    23.54999924   2.16999984  52.50999832
C    23.98999977   1.59999990  53.74000168
C    23.05000114   0.96000004  54.51000214
C    21.65999985   1.19999993  54.29999924
C    17.52000046   1.15999997  53.53000259
C    16.87999916   0.34999999  54.50000000
C    15.52000046   0.05000000  54.41999817
C    25.46999931   1.51999998  54.02000046
H    25.72596741   1.53422046  55.07942581
H    21.00000000   0.02000000  56.04999924
H    19.48999977   1.84000003  51.75000000
H    21.81999969   2.40999985  51.12999725
H    24.25000000   2.66000009  51.84000015
H    23.43000031   0.48999998  55.41999817
H    14.94999981  -0.55000001  55.11000061
H    26.01000023   2.43000007  53.73000336
H    25.84000015   0.69999999  53.40000153
