96

S    17.05000114   4.81999969  58.89999771
C    19.70999908   5.13000011  58.09000015
C    18.45000076   4.65999985  57.81999969
C    18.07999992   4.15999985  56.52999878
C    19.03000069   4.05000019  55.52999878
C    20.38000107   4.40000010  55.79000092
C    21.44000053   4.21000004  54.86999893
C    22.77000046   4.30000019  55.20000076
C    23.05000114   4.96000004  56.42000198
C    22.07999992   5.10999966  57.38999939
C    20.69999886   4.90000010  57.09999847
C    16.62999916   4.11999989  56.38999939
C    15.93999958   4.48000002  57.56999969
C    14.55999947   4.67999983  57.62000275
C    24.46000099   5.40999985  56.72999954
H    24.90184975   4.64745140  57.37139511
H    19.97999954   5.63000011  59.02000046
H    18.92000008   3.54999995  54.56999969
H    21.18999863   3.84999990  53.87000275
H    23.54999924   4.05000019  54.47999954
H    22.43999863   5.38999987  58.37999725
H    13.97999954   4.98000002  58.48999786
H    25.10000038   5.61999989  55.86000061
H    24.44999886   6.35999966  57.27000427
S    13.53999996   3.75000000  53.87000275
C    10.84000015   3.42999983  54.47999954
C    12.10000038   3.78999996  54.89999771
C    12.42000008   4.23999977  56.22000122
C    11.43000031   4.36999989  57.16999817
C    10.11000061   4.00000000  56.79000092
C     9.00000000   4.05000019  57.67000198
C     7.71000004   3.65999985  57.38999939
C     7.42999983   3.37000012  56.03000259
C     8.46000004   3.28000021  55.12000275
C     9.81000042   3.53999996  55.45999908
C    13.83999920   4.46000004  56.44000244
C    14.55999947   4.15999985  55.26000214
C    15.93999958   4.00000000  55.17000198
C     6.05000019   2.91000009  55.63999939
H     5.58546782   3.63181162  54.96821213
H    10.59000015   3.26999998  53.43999863
H    11.69999981   4.65000010  58.18000031
H     9.06999969   4.61999989  58.59000397
H     6.94999981   3.61000013  58.18000031
H     8.47999954   2.89999986  54.09999847
H    16.43000031   3.76999998  54.22999954
H     5.45000029   2.82999992  56.56000137
H     5.98999977   1.89999998  55.20000076
S    14.06999969   1.58000004  51.04000092
C    11.43000031   0.96000004  51.63000107
C    12.75000000   0.92000002  52.02000046
C    13.15999985   0.41999999  53.29999924
C    12.20999908  -0.11000000  54.13999939
C    10.84000015  -0.09999999  53.77999878
C     9.80000019  -0.48999998  54.66999817
C     8.47000027  -0.32999998  54.34000015
C     8.10999966   0.24000001  53.09000015
C     9.06999969   0.64999998  52.18999863
C    10.44000053   0.48999998  52.52999878
C    14.60000038   0.57999998  53.47000122
C    15.17000008   1.33000004  52.41000366
C    16.51000023   1.67999995  52.39999771
C     6.63999987   0.35999998  52.74000168
H     6.33384991  -0.05294642  51.77883148
H    11.13000011   1.47000003  50.70999908
H    12.51000023  -0.24000001  55.18000031
H    10.03000069  -0.86000001  55.66999817
H     7.82999992  -0.59000003  55.17000198
H     8.71999931   1.18000007  51.31000137
H    16.98999977   2.09000015  51.52000046
H     6.05000019  -0.11000000  53.54000092
H     6.34000015   1.41000009  52.81000137
S    18.00000000  -0.23000000  55.54000092
C    20.69999886   0.29999998  54.85000229
C    19.34999847   0.50000000  54.65999985
C    18.81999969   1.25000000  53.55999756
C    19.71999931   1.75999999  52.64999771
C    21.11999893   1.57000005  52.77000046
C    22.04000092   2.00000000  51.77000046
C    23.38000107   1.94999993  52.08000183
C    23.88999939   1.28999996  53.22999954
C    23.01000214   0.69000000  54.09999847
C    21.61000061   0.87000000  53.93000031
C    17.36999893   1.23000002  53.40999985
C    16.77999878   0.46999997  54.45000076
C    15.44000053   0.13000000  54.50000000
C    25.38000107   1.11000001  53.37999725
H    25.72103119   1.30893397  54.39598083
H    20.97999954  -0.25999999  55.73999786
H    19.34000015   2.09999990  51.69000244
H    21.67000008   2.43000007  50.84000015
H    24.00000000   2.37000012  51.29000092
H    23.43000031   0.04000000  54.86000061
H    15.07999992  -0.54000002  55.27000046
H    26.00000000   1.70000005  52.69000244
H    25.59999847   0.09000000  53.06000137
