96

S    16.93000031   5.00000000  58.79000092
C    19.67000008   4.96000004  58.22999954
C    18.38999939   4.61999989  57.84999847
C    18.07999992   4.13000011  56.53999710
C    19.11999893   3.94000006  55.65999985
C    20.45000076   4.28999996  55.98999786
C    21.60000038   4.05000019  55.18000031
C    22.86999893   4.40000010  55.56999969
C    23.12000084   5.05000019  56.81000137
C    22.04000092   5.23000002  57.64999771
C    20.72999954   4.78999996  57.30999756
C    16.63999939   4.11000013  56.31999969
C    15.88999939   4.59999990  57.41000366
C    14.50000000   4.67999983  57.41000366
C    24.53000069   5.42000008  57.21000290
H    24.98666191   4.74927902  57.93780518
H    19.93999863   5.44000053  59.16999817
H    19.07999992   3.53999996  54.65000153
H    21.38000107   3.48000002  54.27999878
H    23.72999954   4.15000010  54.95999908
H    22.20000076   5.66999960  58.63999939
H    13.85000038   4.84000015  58.27000046
H    25.17999840   5.40000010  56.32999802
H    24.61999893   6.44999981  57.56999969
S    13.53999996   3.07000017  53.93000031
C    10.82999992   2.91000009  54.61999893
C    12.09000015   3.40999985  54.88999939
C    12.38999939   4.13000011  56.09000397
C    11.42000008   4.32999992  57.05999756
C    10.11999989   3.91999984  56.70000076
C     9.06999969   4.21000004  57.62000275
C     7.81000042   3.71000004  57.39999771
C     7.46999979   3.09999990  56.16000366
C     8.43999958   2.79000020  55.22999573
C     9.77000046   3.24000001  55.48999786
C    13.81000042   4.39000034  56.23000336
C    14.56999969   3.81999993  55.17000198
C    15.95000076   3.68999982  55.17000198
C     6.02999973   2.73000002  55.89000320
H     5.48938084   3.37020659  55.19289017
H    10.71000004   2.27999997  53.74000168
H    11.69999981   4.88000011  57.95999908
H     9.22999954   4.65999985  58.60000229
H     7.00000000   3.82999992  58.11000061
H     8.25000000   2.23000002  54.31999969
H    16.46999931   3.14000010  54.40000153
H     5.45000029   2.61999989  56.81000137
H     5.98999977   1.71000004  55.47000122
S    13.92000008   1.04999995  50.94999695
C    11.21000099   0.62000000  51.56999969
C    12.53999901   0.45000002  51.88000107
C    12.92000008  -0.04000000  53.16999817
C    11.95000076  -0.55000001  54.01000214
C    10.57999992  -0.41999999  53.68999863
C     9.52999973  -0.93000001  54.51000214
C     8.19000053  -0.75999999  54.29000092
C     7.86000013  -0.00000000  53.13999939
C     8.80000019   0.46000001  52.25000000
C    10.19000053   0.20999999  52.45999908
C    14.35999966   0.09000000  53.40999985
C    15.01999950   0.64000005  52.28000259
C    16.36999893   0.94999999  52.25000000
C     6.44000006   0.46000001  52.88000107
H     6.05624390  -0.00192809  51.97035599
H    10.95999908   1.25999999  50.72000122
H    12.28999996  -1.28000009  54.73999786
H     9.86999989  -1.38000000  55.44000244
H     7.40999985  -0.86000001  55.04000092
H     8.50000000   0.92000002  51.31000137
H    16.84999847   1.35000002  51.36000061
H     5.82000017   0.32000002  53.76999664
H     6.44000006   1.52999997  52.64999771
S    17.69000053  -0.51999998  55.66999817
C    20.35000038   0.12000000  55.04000092
C    19.02000046   0.13000000  54.68999863
C    18.60000038   0.71000004  53.44999695
C    19.48999977   1.38999999  52.63999939
C    20.88000107   1.25000000  52.88999939
C    21.90000153   1.87999988  52.11999893
C    23.22999954   1.62000000  52.36999893
C    23.62999916   0.93000001  53.54000092
C    22.67999840   0.41999999  54.38999939
C    21.30000114   0.56999999  54.09000015
C    17.15999985   0.54000002  53.34000015
C    16.50000000  -0.05000000  54.43999863
C    15.14000034  -0.32999998  54.48999786
C    25.07999802   0.59999996  53.81999969
H    25.42874908   1.01280642  54.76660538
H    20.68000031  -0.31000000  55.97999954
H    19.13999939   1.99000001  51.81000137
H    21.57999992   2.47000003  51.25999832
H    24.02000046   1.93000007  51.70000076
H    22.93000031  -0.12000000  55.30000305
H    14.84000015  -1.04999995  55.25000000
H    25.62000084   1.00000000  52.95000076
H    25.23999977  -0.48999998  53.76999664
