96

S    17.22999954   4.98000002  58.89999771
C    19.98999977   4.99000025  58.22000122
C    18.70000076   4.56999969  58.00000000
C    18.29000092   4.01999998  56.73999786
C    19.32999992   3.82999992  55.84999847
C    20.69000053   4.19999981  56.00000000
C    21.65999985   4.05999994  54.97000122
C    22.95999908   4.41000032  55.21999741
C    23.35000038   4.92999983  56.49000168
C    22.39000130   5.17000008  57.44999695
C    21.04000092   4.75000000  57.29000092
C    16.84000015   3.93000007  56.59999847
C    16.05999947   4.42999983  57.68000031
C    14.68000031   4.57999992  57.68000031
C    24.79000092   5.31000042  56.69000244
H    25.25157547   4.55727434  57.32910538
H    20.22000122   5.53999996  59.13000107
H    18.86999893   3.42000008  54.95999908
H    21.34000015   3.61000013  54.02999878
H    23.72999954   4.19999981  54.47999954
H    22.53999901   5.78000021  58.33000183
H    14.26000023   5.17000008  58.48999786
H    25.20000076   5.29999971  55.66999817
H    24.86999893   6.32999992  57.09000015
S    13.73000050   3.19999981  54.06999969
C    11.00999928   3.33999991  54.54000092
C    12.27000046   3.67000008  54.97000122
C    12.57999992   4.18000031  56.26999664
C    11.54000092   4.40000010  57.15999985
C    10.22999954   4.11000013  56.72000122
C     9.13000011   4.21999979  57.62000275
C     7.81000042   4.09999990  57.27000427
C     7.46999979   3.65999985  55.96000290
C     8.52999973   3.45999980  55.11000061
C     9.92000008   3.60000014  55.40999985
C    14.01000023   4.15000010  56.52999878
C    14.75999928   3.61999989  55.45999908
C    16.14999962   3.51999998  55.45000076
C     6.05000019   3.25000000  55.63000107
H     5.63038969   3.80473900  54.79077911
H    10.86999989   2.94000006  53.54000092
H    11.72999954   4.61999989  58.20999908
H     9.28999996   4.38000011  58.68000031
H     6.98999977   4.09000015  57.97999954
H     8.38999939   3.23000002  54.06000137
H    16.68000031   3.16000009  54.58000183
H     5.35000038   3.30999994  56.46999741
H     6.07999992   2.17999983  55.41999817
S    17.39999962   5.03999996  52.98999786
C    20.10000038   5.31000042  52.35000229
C    18.81999969   5.03999996  51.93000031
C    18.57999992   4.79999971  50.54000092
C    19.65999985   4.55999994  49.71000290
C    20.97999954   4.77999973  50.13999939
C    22.04000092   4.78999996  49.18000031
C    23.31000137   5.12000036  49.59999847
C    23.57000160   5.59000015  50.91999817
C    22.56999969   5.50000000  51.86000061
C    21.22999954   5.18000031  51.50000000
C    17.14999962   4.59999990  50.33000183
C    16.42000008   4.82999992  51.52000046
C    15.03000069   4.92000008  51.58000183
C    24.96000099   6.02999973  51.31999969
H    25.45646095   5.26403236  51.91575241
H    20.13000107   5.58000040  53.40000153
H    19.51000023   4.38000011  48.63999939
H    21.88999939   4.46999979  48.15999985
H    24.09000015   5.19999981  48.86000061
H    22.72999954   5.71000004  52.91999817
H    14.47000027   5.18000031  52.47000122
H    25.48999977   6.19999981  50.37000275
H    24.93000031   6.98999977  51.83000183
S    14.01000023   3.88000011  47.84999847
C    11.36999989   3.61000013  48.53000259
C    12.61999989   3.97000027  48.95000076
C    12.93000031   4.36999989  50.28999710
C    11.87999916   4.51000023  51.18000031
C    10.54999924   4.28000021  50.73999786
C     9.43000031   4.36999989  51.60999680
C     8.10999966   4.19000006  51.24000168
C     7.90000010   3.65999985  49.93999863
C     8.93000031   3.51000023  49.03999710
C    10.26999950   3.81000018  49.40999985
C    14.37000084   4.53999996  50.40000153
C    15.08999920   4.25000000  49.20999908
C    16.47999954   4.21999979  49.16999817
C     6.50000000   3.32999992  49.47000122
H     6.14399624   3.99928665  48.68679047
H    11.13999939   3.19000006  47.55000305
H    12.10000038   4.85000038  52.18000031
H     9.59999943   4.55000019  52.65999603
H     7.28999996   4.23999977  51.95000076
H     8.71000004   3.12000012  48.04999924
H    16.97000122   3.98999977  48.22000122
H     5.86999989   3.42000008  50.35999680
H     6.39999962   2.28999996  49.13000107
