96

S    17.30999947   5.32999992  58.72000122
C    20.03000069   5.29999971  58.06000137
C    18.72999954   5.03000021  57.70000076
C    18.35000038   4.51999998  56.40999603
C    19.37999916   4.38000011  55.50000000
C    20.71000099   4.80999994  55.76000214
C    21.77000046   4.65000010  54.81999969
C    23.05999947   4.96000004  55.17000198
C    23.36999893   5.69000006  56.33999634
C    22.36999893   5.78000021  57.28000259
C    21.04000092   5.32000017  57.05999756
C    16.90999985   4.48999977  56.24000168
C    16.20000076   4.86000013  57.42000198
C    14.81999969   5.00000000  57.43999863
C    24.79999924   6.01000023  56.72000122
H    25.25747490   5.37382412  57.47769165
H    20.22999954   5.65999985  59.06999969
H    19.19000053   3.70000005  54.68000031
H    21.63000107   4.15000010  53.86000061
H    23.88000107   4.51999998  54.61000061
H    22.63000107   6.11000013  58.27999878
H    14.42999935   5.35000038  58.39000320
H    25.45000076   6.01999998  55.84000015
H    24.75000000   7.03999996  57.09000015
S    13.61999989   3.79999995  53.92000198
C    10.86999989   3.75999975  54.55999756
C    12.17000008   4.03999996  54.92000198
C    12.56000042   4.48999977  56.22000122
C    11.59000015   4.79999971  57.15000153
C    10.26999950   4.38000011  56.86999893
C     9.22000027   4.28000021  57.81999969
C     7.90000010   4.17000008  57.43999863
C     7.57000017   3.65999985  56.16000366
C     8.56999969   3.49000001  55.22999573
C     9.88000011   3.95000005  55.54999924
C    14.01000023   4.59000015  56.37000275
C    14.73999977   4.26999998  55.20000076
C    16.13000107   4.23999977  55.11000061
C     6.17999983   3.22000003  55.77000046
H     5.71614408   3.79803514  54.97074127
H    10.67000008   3.37000012  53.55999756
H    11.97000027   5.12000036  58.11999893
H     9.38000011   4.46000004  58.88000107
H     7.07999992   4.38000011  58.11999893
H     8.36999989   3.07000017  54.25000000
H    16.61000061   4.00000000  54.15999985
H     5.52999973   3.40999985  56.63999939
H     6.34000015   2.16000009  55.56999969
S    13.94000053   1.81999993  51.18000031
C    11.28999901   1.19999993  51.86999893
C    12.63000011   1.08000004  52.11999893
C    13.15000057   0.39000002  53.27000046
C    12.25999928  -0.09999999  54.20999908
C    10.88000107  -0.06000000  53.90999603
C     9.92999935  -0.69999999  54.75999832
C     8.60000038  -0.79999995  54.40000153
C     8.11999989  -0.07000000  53.27999878
C     8.94999981   0.82000005  52.63999939
C    10.34999943   0.73000002  52.83000183
C    14.57999992   0.57999998  53.44999695
C    15.14999962   1.29999995  52.36999893
C    16.46999931   1.72000003  52.31999969
C     6.72999954  -0.28999999  52.72999573
H     6.35277987   0.40038332  51.97555923
H    11.00000000   1.74000001  50.97000122
H    12.58999920  -0.71000004  55.04000092
H    10.29999924  -1.35000002  55.54000092
H     7.92000008  -1.39999998  55.00000000
H     8.69999981   1.13000000  51.63000107
H    16.87999916   2.16000009  51.40999603
H     6.84000015  -1.21000004  52.15000153
H     5.98000002  -0.28999999  53.54000092
S    17.97999954   0.25000000  55.65000153
C    20.65000153   0.74000001  54.86999893
C    19.29999924   0.83999997  54.61999893
C    18.76000023   1.44999993  53.43999863
C    19.65999985   2.00000000  52.54000092
C    21.04999924   1.94999993  52.77999878
C    22.01999855   2.48000002  51.86999893
C    23.35000038   2.22000003  52.09999847
C    23.82999802   1.64000010  53.29999924
C    22.95000076   1.13000000  54.22000122
C    21.55999947   1.35000002  53.97999573
C    17.31999969   1.30999994  53.36000061
C    16.72999954   0.61000001  54.45000076
C    15.39999962   0.20999999  54.52000046
C    25.31999969   1.39999998  53.43000031
H    25.51973152   1.74953282  54.44293213
H    20.98999977   0.14000000  55.70999908
H    19.25000000   2.56000018  51.70000076
H    21.67000008   3.07999992  51.03000259
H    24.07999992   2.66000009  51.42000198
H    23.26999855   0.52999997  55.06999969
H    15.03000069  -0.39999998  55.34000015
H    25.88999939   1.95999992  52.69000244
H    25.65999985   0.35999998  53.50999832
