96

S    16.95000076   5.07000017  58.80000305
C    19.71999931   5.31000042  58.22000122
C    18.43000031   5.05999994  57.81999969
C    18.05999947   4.61999989  56.50000000
C    19.09000015   4.40000010  55.61000061
C    20.43999863   4.61000013  55.96000290
C    21.54000092   4.48999977  55.06000137
C    22.85000038   4.67999983  55.45000076
C    23.16999817   5.07000017  56.77999878
C    22.11999893   5.25000000  57.64999771
C    20.75000000   5.12000036  57.27000427
C    16.64999962   4.42000008  56.19999695
C    15.93000031   4.76999998  57.37999725
C    14.55000019   4.92999983  57.43999863
C    24.61999893   5.35000038  57.09999847
H    25.03515816   4.61273813  57.78715897
H    20.03000069   5.73999977  59.16999817
H    18.78000069   3.97000027  54.65000153
H    21.44000053   4.19999981  54.02000046
H    23.64999962   4.59000015  54.72000122
H    22.39999962   5.51000023  58.67000198
H    14.04000092   5.21000004  58.34999847
H    25.20999908   5.42000008  56.17000198
H    24.64999962   6.34000015  57.56999969
S    13.40000057   3.84999990  53.82999802
C    10.70000076   3.65000010  54.58000183
C    11.97999954   4.05000019  54.87999725
C    12.34000015   4.48999977  56.18999863
C    11.38000011   4.57999992  57.18000031
C    10.03000069   4.30000019  56.86000061
C     8.97000027   4.32000017  57.81999969
C     7.69000006   3.91000009  57.51999664
C     7.32999992   3.65999985  56.17000198
C     8.31999969   3.56999993  55.21999741
C     9.67000008   3.86999989  55.52999878
C    13.78000069   4.59999990  56.31000137
C    14.52000046   4.19000006  55.17000198
C    15.90000057   4.05000019  55.07999802
C     5.92999983   3.16000009  55.86000061
H     5.52274561   3.69586110  55.00262070
H    10.44999981   3.28000021  53.59000397
H    11.64999962   4.86000013  58.20000076
H     9.06999969   4.55999994  58.87000275
H     6.98000002   3.88999987  58.34000015
H     8.11999989   3.05000019  54.27999878
H    16.38000107   3.65000010  54.20000076
H     5.27999973   3.37000012  56.72000122
H     5.86999989   2.07999992  55.66999817
S    13.99000072   1.85000002  51.09000397
C    11.31999969   1.50000000  51.69000244
C    12.61999989   1.24000001  52.04999924
C    13.02999973   0.54000002  53.22999954
C    12.05000019  -0.14999999  53.92000198
C    10.69000053  -0.02000000  53.54999924
C     9.61000061  -0.41000003  54.38999939
C     8.28999996  -0.13000000  54.13000107
C     7.99000025   0.64999998  52.97999954
C     8.97000027   1.01999998  52.09000015
C    10.32999992   0.78000003  52.41000366
C    14.47999954   0.59000003  53.40999985
C    15.11000061   1.25999999  52.32999802
C    16.47999954   1.50000000  52.29999924
C     6.57999992   1.05999994  52.62000275
H     6.25222540   0.56121302  51.70793152
H    11.06999969   2.02999997  50.77000046
H    12.23000050  -0.64999998  54.86999893
H     9.96000004  -1.01999998  55.21999741
H     7.53000021  -0.59000003  54.75000000
H     8.75000000   1.50999999  51.13999939
H    16.97999954   1.84000003  51.39999771
H     5.96000004   0.79999995  53.48999786
H     6.44000006   2.14000010  52.48000336
S    17.86000061   0.02000000  55.68000031
C    20.52999878   0.71000004  55.04000092
C    19.18000031   0.71000004  54.72999954
C    18.68999863   1.26999998  53.50999832
C    19.56999969   1.89999998  52.63999939
C    20.95000076   1.90999997  52.93000031
C    21.94000053   2.38999987  52.02999878
C    23.28000069   2.36000013  52.31999969
C    23.74000168   1.58999991  53.41999817
C    22.84000015   1.08000004  54.33000183
C    21.45000076   1.28000009  54.13000107
C    17.23999977   1.14999998  53.43000031
C    16.62999916   0.41999999  54.47000122
C    15.26999950   0.11000000  54.45999908
C    25.22000122   1.38999999  53.64999771
H    25.67549133   1.70314932  54.58944702
H    20.86000061   0.13000000  55.89000320
H    19.14999962   2.26999998  51.70999908
H    21.70999908   2.79000020  51.04000092
H    24.01000023   2.61000013  51.56000137
H    23.16999817   0.55000001  55.21999741
H    14.75999928  -0.22000000  55.35999680
H    25.63999939   1.82999992  52.74000168
H    25.30999947   0.28999999  53.61000061
