96

S    17.27000046   5.58000040  58.63999939
C    20.02000046   5.66999960  58.01000214
C    18.72999954   5.35000038  57.65999603
C    18.38999939   4.59999990  56.47999573
C    19.42000008   4.44999981  55.56999969
C    20.76999855   4.80999994  55.79000092
C    21.81999969   4.55000019  54.86999893
C    23.09999847   4.88000011  55.27000046
C    23.36999893   5.59000015  56.46999741
C    22.36000061   5.89999962  57.35000229
C    21.04000092   5.44000053  57.05999756
C    16.95000076   4.46000004  56.27999878
C    16.21000099   4.84000015  57.43000031
C    14.82999992   5.00999975  57.32999802
C    24.77999878   6.02999973  56.81000137
H    25.24975395   5.38230705  57.55022049
H    20.28000069   6.09000015  58.97999573
H    19.27000046   3.73000002  54.75999832
H    21.59000015   4.15000010  53.88999939
H    23.95999908   4.55000019  54.68999863
H    22.56000137   6.38000011  58.29999924
H    14.44000053   5.51000023  58.20999908
H    25.20999908   5.98999977  55.79999924
H    24.72999954   7.07000017  57.16999817
S    13.81999969   3.88999987  53.79000092
C    11.00999928   4.05999994  54.29999924
C    12.31999969   4.32000017  54.64000320
C    12.64000034   4.73000002  55.97000122
C    11.69999981   4.94999981  56.95999908
C    10.36999893   4.57999992  56.65999985
C     9.39000034   4.55999994  57.69000244
C     8.11999989   4.09999990  57.43000031
C     7.81000042   3.61000013  56.13999939
C     8.76000023   3.54999995  55.13999939
C    10.06000042   4.07000017  55.34999847
C    14.07999992   4.74000025  56.18999863
C    14.89999962   4.19999981  55.17000198
C    16.28000069   4.03999996  55.13000107
C     6.35999966   3.26999998  55.86999893
H     5.88760900   3.94279885  55.15425491
H    10.80000019   3.79999995  53.27000046
H    11.87000084   5.00999975  58.04000092
H     9.61999989   4.90000010  58.69999695
H     7.32999992   4.07000017  58.18000031
H     8.47999954   3.17999983  54.15999985
H    16.84000015   3.89999986  54.22000122
H     5.84000015   3.15000010  56.83000183
H     6.25999975   2.20000005  55.63999939
S    14.07999992   1.81999993  50.87999725
C    11.44000053   1.38999999  51.47999573
C    12.75000000   1.16999996  51.84999847
C    13.21000004   0.55000001  53.06000137
C    12.18000031   0.22000000  53.92000198
C    10.80000019   0.44000000  53.69999695
C     9.77999973  -0.07000000  54.54000092
C     8.45000076   0.17000002  54.25000000
C     8.15999985   0.88999999  53.06000137
C     9.07999992   1.15999997  52.08000183
C    10.46000004   1.07000005  52.44999695
C    14.65999985   0.64000005  53.22000122
C    15.25000000   1.28999996  52.11000061
C    16.59000015   1.67999995  52.15999985
C     6.71000004   1.22000003  52.76000214
H     6.18808174   0.62658584  52.00929642
H    11.09000015   1.94999993  50.61999893
H    12.51999950  -0.29999998  54.81999969
H    10.11000061  -0.59000003  55.43000031
H     7.65999985  -0.20999999  54.88999939
H     8.75000000   1.58999991  51.13999939
H    17.02000046   2.17999983  51.30000305
H     6.21999979   0.97000003  53.69999695
H     6.65999985   2.29999995  52.56000137
S    18.00000000   0.19000000  55.54999924
C    20.65999985   0.73000002  54.88999939
C    19.32999992   0.86000001  54.58000183
C    18.85000038   1.47000003  53.37999725
C    19.72999954   1.94000006  52.43000031
C    21.11000061   1.67999995  52.65999603
C    22.07999992   2.05999994  51.69000244
C    23.43000031   2.06999993  51.95000076
C    23.88999939   1.65999997  53.22000122
C    23.00000000   1.12000000  54.12000275
C    21.59000015   1.21000004  53.93000031
C    17.40999985   1.26999998  53.22000122
C    16.79000092   0.68000007  54.34999847
C    15.44000053   0.32999998  54.33000183
C    25.36000061   1.50000000  53.54000092
H    25.63593483   1.79716003  54.55176163
H    20.97999954   0.32999998  55.84999847
H    19.40000153   2.31999993  51.46999741
H    21.78999901   2.61000013  50.79999924
H    24.11999893   2.33999991  51.14999771
H    23.34000015   0.75000000  55.07999802
H    14.96999931  -0.20999999  55.13999939
H    26.02000046   2.10999990  52.90000153
H    25.66999817   0.46999997  53.36000061
