96

S    17.10000038   5.19999981  58.68999863
C    19.77000046   5.46000004  57.95000076
C    18.51000023   5.00999975  57.63999939
C    18.19000053   4.42999983  56.37000275
C    19.22999954   4.26999998  55.47000122
C    20.56999969   4.42999983  55.90999985
C    21.61000061   4.00999975  55.04000092
C    22.90999985   4.35999966  55.31000137
C    23.19999886   5.23000002  56.39999771
C    22.21999931   5.56999969  57.29999924
C    20.86999893   5.13000011  57.11999893
C    16.73999977   4.32000017  56.23000336
C    16.01000023   4.85000038  57.31999969
C    14.65000057   5.09999990  57.27000427
C    24.61999893   5.66999960  56.63999939
H    25.05430603   5.05769920  57.43029404
H    20.00000000   6.02999973  58.85000229
H    19.05999947   3.72000003  54.54999924
H    21.38999939   3.77999997  54.00000000
H    23.68000031   4.13999987  54.58000183
H    22.44999886   6.10000038  58.22999954
H    14.09999943   5.32000017  58.18000031
H    25.22999954   5.59999990  55.73999786
H    24.59000015   6.69000053  57.04000092
S    13.56999969   3.40999985  53.86000061
C    10.84000015   3.77999997  54.43000031
C    12.15999985   3.91999984  54.80999756
C    12.48000050   4.55000019  56.05999756
C    11.44000053   4.72000027  56.95999908
C    10.07999992   4.44000006  56.70000076
C     9.03999996   4.48000002  57.68000031
C     7.76999998   4.15000010  57.27000427
C     7.51999950   3.75999975  55.93000031
C     8.46000004   3.74000025  54.93000031
C     9.80000019   3.96000004  55.37000275
C    13.92000008   4.69999981  56.14999771
C    14.63999939   4.19000006  55.04000092
C    16.01000023   3.91999984  55.10000229
C     6.12999964   3.28000021  55.56000137
H     5.60362005   4.01266384  54.94826126
H    10.65000057   3.42000008  53.43000031
H    11.72999954   5.01999950  57.95999908
H     9.26999950   4.88000011  58.66000366
H     7.00999975   4.13999987  58.04000092
H     8.31999969   3.47000003  53.88000107
H    16.54999924   3.49000001  54.27000046
H     5.64000034   3.10999990  56.52999878
H     6.11000013   2.29999995  55.06000137
S    17.72999954   5.42000008  52.81999969
C    20.43000031   5.47999954  52.06999969
C    19.12999916   5.13999987  51.77000046
C    18.78999901   4.69999981  50.45000076
C    19.78999901   4.35999966  49.54999924
C    21.14000130   4.67000008  49.85000229
C    22.18000031   4.55999994  48.88000107
C    23.50000000   4.76000023  49.22000122
C    23.81000137   5.21000004  50.52999878
C    22.81999969   5.51000023  51.43000031
C    21.45999908   5.17000008  51.16000366
C    17.35999870   4.81999969  50.24000168
C    16.64999962   5.09000015  51.44000244
C    15.26999950   5.05000019  51.55000305
C    25.23999977   5.60999966  50.79999924
H    25.67382622   5.00548935  51.59653091
H    20.72999954   6.09000015  52.91999817
H    19.57999992   4.02999973  48.54000092
H    21.98999786   4.21000004  47.87000275
H    24.18999863   4.75000000  48.37999725
H    22.95999908   6.05000019  52.36000061
H    14.70000076   5.21000004  52.45999908
H    25.95000076   5.82999992  49.99000168
H    25.15000153   6.61999989  51.22000122
S    14.14000034   4.25000000  47.81000137
C    11.44000053   4.05999994  48.40999985
C    12.71000004   4.34999990  48.85000229
C    13.09999943   4.77999973  50.14999771
C    12.02000046   4.90000010  51.00999832
C    10.67000008   4.79999971  50.59999847
C     9.59000015   4.92999983  51.52999878
C     8.28999996   4.61000013  51.20999908
C     8.02999973   4.00999975  49.94999695
C     9.04999924   3.75000000  49.06000137
C    10.36000061   4.23000002  49.31999969
C    14.53999996   4.86000013  50.37000275
C    15.24000072   4.63000011  49.15000153
C    16.61999893   4.56999969  49.08000183
C     6.65000010   3.45999980  49.68999863
H     6.18995476   4.04036474  48.89022827
H    11.21000099   3.55999994  47.47000122
H    12.20999908   5.05000019  52.06999969
H     9.85000038   5.07999992  52.56999969
H     7.50999975   4.46000004  51.95000076
H     8.78999996   3.26999998  48.11999893
H    17.07999992   4.19999981  48.16999817
H     6.12999964   3.56999993  50.65000153
H     6.51999998   2.38999987  49.47000122
