96

S    17.69000053   4.86999989  58.67000198
C    20.38999939   5.03000021  57.88999939
C    19.07999992   4.72000027  57.57999802
C    18.67000008   4.32000017  56.26999664
C    19.62000084   4.32000017  55.27000046
C    20.98999977   4.46000004  55.59000015
C    22.03000069   4.35999966  54.61999893
C    23.36000061   4.50000000  54.92000198
C    23.71000099   5.13000011  56.13999939
C    22.73999977   5.32999992  57.09999847
C    21.38999939   4.92000008  56.90000153
C    17.21999931   4.19000006  56.18000031
C    16.53000069   4.53000021  57.36999893
C    15.15999985   4.76999998  57.37999725
C    25.10999870   5.42999983  56.63999939
H    25.51561928   4.69703960  57.33738327
H    20.69999886   5.38999987  58.87000275
H    19.34000015   4.13000011  54.22999954
H    21.78999901   4.07000017  53.60000229
H    24.14999962   4.09000015  54.29999924
H    22.93999863   5.79999971  58.06000137
H    14.55999947   5.05000019  58.23999786
H    25.79999924   5.42999983  55.79000092
H    24.99000168   6.42000008  57.09999847
S    14.00000000   3.40000010  53.77999878
C    11.28999901   3.38999987  54.54000092
C    12.57999992   3.79999995  54.78000259
C    12.94999981   4.40000010  56.02000427
C    11.96000004   4.72000027  56.93000031
C    10.62000084   4.32000017  56.70999908
C     9.59999943   4.48000002  57.69000244
C     8.27000046   4.26000023  57.43000031
C     7.88999987   3.55999994  56.25000000
C     8.89999962   3.28000021  55.37000275
C    10.27999973   3.61000013  55.51000214
C    14.39000034   4.44000006  56.25999832
C    15.05000019   3.89999986  55.12000275
C    16.43000031   3.88000011  55.06000137
C     6.44000006   3.23000002  55.98999786
H     5.92660904   3.78617382  55.20565033
H    11.02000046   3.02999997  53.54999924
H    12.15999985   5.19000006  57.90000153
H     9.92999935   4.86000013  58.64999771
H     7.49000025   4.48000002  58.15999985
H     8.57999992   2.84000015  54.43000031
H    16.86000061   3.56999993  54.10999680
H     6.00000000   3.35999990  56.98999786
H     6.35999966   2.13000011  55.97000122
S    17.70000076   5.86000013  52.47000122
C    20.48000145   5.68000031  51.98999786
C    19.19000053   5.31000042  51.68000031
C    18.86000061   4.76000023  50.40999985
C    19.88000107   4.44000006  49.54000092
C    21.19999886   4.90000010  49.78000259
C    22.29999924   4.59999990  48.93000031
C    23.59999847   4.97000027  49.19000244
C    23.88999939   5.55999994  50.45000076
C    22.85000038   5.92999983  51.26999664
C    21.50000000   5.56999969  51.02000427
C    17.43000031   4.51000023  50.20999908
C    16.65999985   5.05999994  51.26999664
C    15.29000092   5.27999973  51.24000168
C    25.31999969   5.98999977  50.70999908
H    25.78393364   5.34049129  51.45229340
H    20.81999969   6.19000006  52.88999939
H    19.73999977   3.97000027  48.55999756
H    22.06000137   4.05999994  48.02000046
H    24.31999969   4.88999987  48.39000320
H    23.09000015   6.34999990  52.25000000
H    14.77000046   5.69000006  52.09999847
H    25.85000038   6.11000013  49.75000000
H    25.15999985   7.02000046  51.06999969
S    14.22000027   3.72000003  47.75000000
C    11.51999950   4.00000000  48.39000320
C    12.82999992   4.23000002  48.73000336
C    13.10999966   4.77999973  50.02999878
C    12.10000038   4.90999985  50.96000290
C    10.77999973   4.50000000  50.68000031
C     9.77000046   4.55000019  51.69000244
C     8.50000000   4.13999987  51.36000061
C     8.21000004   3.70000005  50.04000092
C     9.13999939   3.70000005  49.02999878
C    10.47999954   4.03999996  49.34999847
C    14.55999947   4.81999969  50.13999939
C    15.27999973   4.19000006  49.09000015
C    16.67000008   4.21999979  49.08000183
C     6.77999973   3.30000019  49.72000122
H     6.29597998   4.00467634  49.04379272
H    11.18999958   3.48000002  47.50000000
H    12.23999977   5.28999996  51.97000122
H     9.96999931   4.94999981  52.68000031
H     7.69999981   4.40000010  52.04000092
H     8.84000015   3.35999990  48.04000092
H    17.17000008   4.05000019  48.11999893
H     6.32000017   3.19999981  50.70999908
H     6.76999998   2.25000000  49.40000153
