96

S    17.19000053   5.18000031  58.50000000
C    19.86999893   4.76999998  58.06999969
C    18.59000015   4.44000006  57.69000244
C    18.25000000   4.02999973  56.36000061
C    19.31999969   3.73000002  55.54999924
C    20.63999939   4.11000013  55.90000153
C    21.73999977   3.91000009  55.00999832
C    23.01000214   4.19999981  55.43000031
C    23.38000107   4.55000019  56.76000214
C    22.32999992   4.81999969  57.61000061
C    20.98999977   4.57999992  57.21000290
C    16.79999924   3.98000002  56.17000198
C    16.10000038   4.56999969  57.23999786
C    14.70999908   4.61999989  57.36000061
C    24.79999924   4.99000025  57.01000214
H    25.21903992   4.32237673  57.76285172
H    20.13000107   5.36000013  58.94000244
H    19.12999916   3.30000019  54.56999969
H    21.55999947   3.71000004  53.95999908
H    23.81000137   4.15999985  54.69999695
H    22.56000137   5.21000004  58.60000229
H    14.19999981   5.01999950  58.23999786
H    25.32999992   4.97000027  56.04999924
H    24.77999878   6.01999998  57.36999893
S    13.60999966   3.45000005  53.73000336
C    10.90999985   3.51000023  54.47999954
C    12.22000027   3.79999995  54.77000427
C    12.53999901   4.26999998  56.09000397
C    11.56999969   4.65000010  57.00000000
C    10.21000004   4.42000008  56.69000244
C     9.13999939   4.75000000  57.56999969
C     7.82000017   4.56999969  57.22000122
C     7.53000021   3.86000013  56.03000259
C     8.52000046   3.72000003  55.07999802
C     9.89000034   3.88000011  55.40000153
C    13.99000072   4.23999977  56.22000122
C    14.70000076   3.75000000  55.10000229
C    16.06999969   3.55999994  55.05000305
C     6.11000013   3.42999983  55.72000122
H     5.66940022   3.93455791  54.86012268
H    10.59999943   2.98000002  53.57999802
H    11.84000015   5.14999962  57.93000031
H     9.38000011   5.10999966  58.56999969
H     7.11000013   4.85000038  57.98999786
H     8.34000015   3.30000019  54.09999847
H    16.48999977   3.24000001  54.09999847
H     5.42000008   3.63999987  56.53999710
H     6.05000019   2.33999991  55.56999969
S    17.72999954   5.28999996  52.70000076
C    20.40999985   5.42999983  51.95000076
C    19.10000038   5.23000002  51.56999969
C    18.71999931   4.94999981  50.21999741
C    19.70000076   4.82999992  49.25000000
C    21.05999947   5.00999975  49.61000061
C    22.11000061   4.96000004  48.64999771
C    23.44000053   5.10999966  48.99000168
C    23.75000000   5.53999996  50.30000305
C    22.77000046   5.65999985  51.25999832
C    21.42000008   5.29999971  50.97000122
C    17.28999901   4.73000002  50.13999939
C    16.61999893   5.09000015  51.32999802
C    15.22999954   5.17000008  51.44000244
C    25.13000107   6.05000019  50.63999939
H    25.71294022   5.43151569  51.32246399
H    20.63999939   5.95000029  52.88000107
H    19.55000114   4.63000011  48.18999863
H    21.90999985   4.57999992  47.64999771
H    24.25000000   4.77999973  48.34999847
H    23.06999969   6.05999994  52.22000122
H    14.81999969   5.33999968  52.43000031
H    25.65000153   6.14000034  49.68000031
H    24.99000168   7.04999971  51.06999969
S    14.06000042   3.98999977  47.84000015
C    11.36000061   3.91000009  48.53000259
C    12.64999962   4.21000004  48.88999939
C    13.01000023   4.69000006  50.19000244
C    11.97999954   4.90000010  51.07999802
C    10.62000084   4.72000027  50.72000122
C     9.55999947   4.98000002  51.63000107
C     8.27000046   4.59999990  51.36000061
C     7.99000025   4.00000000  50.10000229
C     8.96000004   3.76999998  49.15000153
C    10.29999924   4.13999987  49.43999863
C    14.46000004   4.79999971  50.34000015
C    15.15999985   4.36999989  49.18000031
C    16.54000092   4.38000011  49.01000214
C     6.57000017   3.68000007  49.68999863
H     6.29166269   4.22953749  48.79075623
H    11.23000050   3.40000010  47.57999802
H    12.23999977   5.23999977  52.09000015
H     9.89999962   5.46000004  52.54000092
H     7.42999983   4.92999983  51.97000122
H     8.67999935   3.38999987  48.16999817
H    17.06999969   4.18000031  48.08000183
H     5.89999962   4.05000019  50.47999954
H     6.44000006   2.59999990  49.59999847
