96

S    16.98999977   5.36999989  58.61999893
C    19.70000076   5.31000042  58.06999969
C    18.42000008   5.07000017  57.62000275
C    18.11000061   4.55000019  56.31999969
C    19.11999893   4.41000032  55.38000107
C    20.45000076   4.51000023  55.81999969
C    21.53000069   4.34999990  54.91000366
C    22.84000015   4.55000019  55.26000214
C    23.13999939   5.13999987  56.52000046
C    22.10000038   5.33999968  57.38999939
C    20.73999786   5.00000000  57.15000153
C    16.67000008   4.48999977  56.12999725
C    15.93999958   4.90999985  57.27000427
C    14.56999969   5.12000036  57.22000122
C    24.48999786   5.73999977  56.83000183
H    25.01705360   5.02064133  57.45676804
H    19.89999962   5.86000013  58.97999573
H    18.95000076   4.23000002  54.31999969
H    21.42000008   4.42999983  53.82999802
H    23.57000160   4.88000011  54.52000046
H    22.19000053   5.80999947  58.36999893
H    13.96999931   5.26999998  58.11999893
H    24.99000168   5.78999996  55.86000061
H    24.34999847   6.75000000  57.23999786
S    13.47000027   4.15999985  53.53000259
C    10.72999954   3.84000015  54.25000000
C    12.02000046   4.23000002  54.54999924
C    12.43000031   4.73000002  55.81999969
C    11.49000072   4.82999992  56.83000183
C    10.14000034   4.55000019  56.53999710
C     9.15999985   4.53000021  57.56999969
C     7.86999989   4.17000008  57.25999832
C     7.44000006   3.95000005  55.93000031
C     8.36999989   3.84999990  54.92000198
C     9.73999977   4.07000017  55.24000168
C    13.86000061   4.88000011  56.03000259
C    14.57999992   4.46000004  54.87999725
C    15.95999908   4.28000021  54.93999863
C     5.96000004   3.75000000  55.65000153
H     5.67566347   4.22626352  54.71169281
H    10.52000046   3.56999993  53.22000122
H    11.94000053   4.98000002  57.81000137
H     9.48999977   4.79999971  58.56999969
H     7.11999989   4.11999989  58.04000092
H     8.18000031   3.52999973  53.89999771
H    16.45000076   4.09000015  53.99000168
H     5.23999977   4.13000011  56.38000107
H     5.84999990   2.66000009  55.70000076
S    17.61999893   5.88999987  52.56000137
C    20.34000015   6.00000000  51.97000122
C    19.06999969   5.65000010  51.56999969
C    18.73999977   5.00000000  50.33000183
C    19.78999901   4.84000015  49.45000076
C    21.12999916   5.17000008  49.79000092
C    22.18000031   4.97000027  48.85000229
C    23.48999977   5.18000031  49.20999908
C    23.74000168   5.80999947  50.45000076
C    22.75000000   6.06999969  51.38000107
C    21.40999985   5.68000031  51.11000061
C    17.29999924   4.82999992  50.19000244
C    16.53000069   5.32000017  51.26999664
C    15.17000008   5.61999989  51.25000000
C    25.17000008   6.21999979  50.72999954
H    25.68263435   5.55784655  51.42775345
H    20.48000145   6.61999989  52.85999680
H    19.52999878   4.48000002  48.46000290
H    21.86000061   4.63000011  47.87000275
H    24.27000046   5.00999975  48.47000122
H    22.88000107   6.56000042  52.34000397
H    14.70999908   6.05000019  52.12999725
H    25.73999786   6.15000010  49.79000092
H    25.28000069   7.23999977  51.10000229
S    14.18000031   4.34999990  47.63000107
C    11.40999985   4.23000002  48.29999924
C    12.71999931   4.53000021  48.61999893
C    13.02000046   5.22000027  49.84000397
C    11.97999954   5.52999973  50.68999863
C    10.65000057   5.10999966  50.45999908
C     9.55000019   5.44000053  51.31000137
C     8.27000046   5.05999994  50.97000122
C     7.99000025   4.48000002  49.69999695
C     9.02999973   4.13999987  48.87000275
C    10.38000011   4.36999989  49.26000214
C    14.46000004   5.32000017  50.07999802
C    15.21000004   4.78999996  49.00000000
C    16.56999969   4.51000023  49.03999710
C     6.56000042   4.09000015  49.43000031
H     6.09741259   4.70915604  48.66139221
H    11.23000050   3.95000005  47.25999832
H    12.10999966   5.97000027  51.66999817
H     9.61000061   5.96000004  52.25999832
H     7.46000004   5.19999981  51.66999817
H     8.96000004   3.70000005  47.88000107
H    17.17000008   4.21999979  48.18999863
H     5.86999989   4.28999996  50.27000046
H     6.47000027   3.00000000  49.31000137
