96

S    17.06999969   4.76999998  58.97999573
C    19.71999931   5.00999975  58.20000076
C    18.45000076   4.57999992  57.88999939
C    18.06999969   3.97000027  56.65000153
C    19.09000015   3.78999996  55.73999786
C    20.42000008   4.19000006  56.00999832
C    21.47000122   3.95000005  55.06999969
C    22.76000023   4.35999966  55.33000183
C    23.09999847   5.07000017  56.51000214
C    22.10000038   5.23999977  57.43999863
C    20.75000000   4.84000015  57.23999786
C    16.61999893   3.96000004  56.44000244
C    15.98000050   4.39000034  57.63000107
C    14.65000057   4.77999973  57.57999802
C    24.47999954   5.61999989  56.77000046
H    25.04935074   5.05776596  57.51015854
H    19.93000031   5.42999983  59.18000031
H    19.03000069   3.21000004  54.82999802
H    21.28000069   3.58000016  54.06999969
H    23.52000046   4.26000023  54.55999756
H    22.34999847   5.65000010  58.41999817
H    14.17000008   5.26999998  58.43000031
H    25.09000015   5.73000002  55.86000061
H    24.23999977   6.61999989  57.15000153
S    13.43000031   3.42000008  54.10999680
C    10.69000053   3.49000001  54.86000061
C    12.01000023   3.71000004  55.14999771
C    12.41000080   4.26999998  56.39999771
C    11.42000008   4.53000021  57.34000397
C    10.05000019   4.35999966  57.05999756
C     9.09000015   4.67000008  58.06000137
C     7.77999973   4.30000019  57.87000275
C     7.36000013   3.63999987  56.68000031
C     8.30000019   3.40000010  55.70000076
C     9.67000008   3.76999998  55.79999924
C    13.86000061   4.41000032  56.49000168
C    14.57999992   3.93000007  55.35999680
C    15.93000031   3.61000013  55.27999878
C     5.91000032   3.30999994  56.42000198
H     5.48978090   3.92252302  55.62229919
H    10.46000004   2.99000001  53.92000198
H    11.67000008   4.76999998  58.36999893
H     9.42000008   5.10999966  59.00000000
H     7.04999971   4.44000006  58.66000366
H     7.90999985   3.00000000  54.77000427
H    16.42000008   3.23000002  54.38999939
H     5.32999992   3.54999995  57.31999969
H     5.58000040   2.32999992  56.05999756
S    17.35000038   5.15999985  52.97000122
C    20.06999969   5.25000000  52.36000061
C    18.79999924   4.90999985  51.97999954
C    18.47999954   4.46999979  50.65000153
C    19.52999878   4.35999966  49.75999832
C    20.86000061   4.72000027  50.07999802
C    21.90000153   4.50000000  49.12000275
C    23.19000053   4.73000002  49.52999878
C    23.51000023   5.13999987  50.84999847
C    22.49000168   5.38000011  51.73999786
C    21.11999893   5.23999977  51.39999771
C    17.04000092   4.36999989  50.47000122
C    16.28000069   4.74000025  51.60999680
C    14.91000080   4.92999983  51.63999939
C    24.89000130   5.65999985  51.19999695
H    25.35224342   5.07686281  51.99647903
H    20.30999947   5.52999973  53.37999725
H    19.37000084   3.91999984  48.77999878
H    21.68999863   3.89999986  48.23999786
H    24.01000023   4.50000000  48.86000061
H    22.65999985   5.82000017  52.71999741
H    14.42999935   5.26000023  52.56000137
H    25.52000046   5.65000010  50.31000137
H    24.79000092   6.72999954  51.42000198
S    13.86999989   3.67000008  48.02000046
C    11.13000011   3.75000000  48.62999725
C    12.43000031   4.07000017  48.96999741
C    12.79999924   4.53000021  50.27999878
C    11.73999977   4.75000000  51.12999725
C    10.39000034   4.46000004  50.81999969
C     9.40999985   4.46000004  51.84999847
C     8.10000038   4.13000011  51.59000015
C     7.76000023   3.67000008  50.28999710
C     8.69999981   3.53999996  49.29999924
C    10.05000019   3.93000007  49.52999878
C    14.23999977   4.65999985  50.44000244
C    14.96999931   4.21000004  49.29999924
C    16.34000015   3.98999977  49.31999969
C     6.34000015   3.19999981  50.02999878
H     5.88416862   3.80540085  49.24654007
H    10.93999958   3.14000010  47.75000000
H    11.90999985   5.05999994  52.15999985
H     9.75000000   4.74000025  52.84000015
H     7.35000038   4.25000000  52.36999893
H     8.43000031   3.10999990  48.34000015
H    16.86000061   3.53999996  48.47999954
H     5.75000000   3.30000019  50.94999695
H     6.34999990   2.11999989  49.86999893
