96

S    17.05000114   4.92999983  58.81999969
C    19.77000046   5.22000027  58.13999939
C    18.48999977   4.86000013  57.77999878
C    18.15000153   4.41000032  56.45999908
C    19.19999886   4.28000021  55.56999969
C    20.51000214   4.74000025  55.86000061
C    21.61999893   4.67000008  54.97000122
C    22.88999939   5.07000017  55.31999969
C    23.13999939   5.51000023  56.65000153
C    22.15999985   5.44000053  57.60000229
C    20.81999969   5.19000006  57.18999863
C    16.72000122   4.23999977  56.30000305
C    15.97000027   4.59000015  57.44999695
C    14.59000015   4.73000002  57.44999695
C    24.60000038   5.78000021  56.93999863
H    25.02741432   5.08901358  57.66660309
H    19.97999954   5.65000010  59.10999680
H    19.07999992   3.79999995  54.59999847
H    21.51000023   4.05999994  54.08000183
H    23.71000099   4.81999969  54.65999985
H    22.30999947   5.51000023  58.68000031
H    14.01999950   5.10999966  58.29999924
H    25.20000076   5.68000031  56.02000427
H    24.71999931   6.80999994  57.29000092
S    13.50999928   3.61999989  53.85000229
C    10.76000023   3.68000007  54.52000046
C    12.05999947   4.05000019  54.78000259
C    12.43000031   4.56999969  56.05999756
C    11.49000072   4.75000000  57.04999924
C    10.17000008   4.30999994  56.81000137
C     9.06999969   4.53000021  57.70000076
C     7.76000023   4.26000023  57.37999725
C     7.42999983   3.60000014  56.17000198
C     8.43999958   3.37000012  55.26000214
C     9.77999973   3.76999998  55.54000092
C    13.86999989   4.48999977  56.27999878
C    14.63000107   4.02999973  55.17000198
C    16.01000023   3.89999986  55.13999939
C     6.02999973   3.25000000  55.72999954
H     5.57497406   3.87566042  54.96214676
H    10.47999954   3.21000004  53.57999802
H    11.72999954   5.14999962  58.04000092
H     9.44000053   4.88000011  58.66000366
H     7.02000046   4.51000023  58.13000107
H     8.25000000   2.96000004  54.27999878
H    16.56999969   3.72000003  54.22999954
H     5.33999968   3.19000006  56.58000183
H     6.09000015   2.19000006  55.45000076
S    13.89999962   1.77999997  50.77999878
C    11.23999977   1.08999991  51.44000244
C    12.58999920   0.93000001  51.63000107
C    13.07000065   0.46999997  52.88999939
C    12.20000076   0.02000000  53.87000275
C    10.80999947   0.14999999  53.68999863
C     9.81999969  -0.28000000  54.61999893
C     8.47000027  -0.31000000  54.34000015
C     8.00000000   0.32000002  53.15999985
C     8.90999985   0.67000002  52.19999695
C    10.31999969   0.64999998  52.43000031
C    14.50000000   0.62000000  53.11000061
C    15.06999969   1.36000013  52.04000092
C    16.39999962   1.76999998  52.05999756
C     6.51999998   0.63000000  53.02999878
H     6.15523005   0.40112454  52.02867126
H    10.90999985   1.43999994  50.47000122
H    12.51999950  -0.34999999  54.85000229
H    10.19000053  -0.65999997  55.56999969
H     7.77999973  -0.55000001  55.14999771
H     8.50000000   1.05999994  51.26999664
H    16.72000122   2.42000008  51.25000000
H     5.98999977  -0.00000000  53.75999832
H     6.44000006   1.70000005  53.27999878
S    17.79000092   0.50999999  55.54000092
C    20.45000076   0.92000002  54.87999725
C    19.12999916   1.05999994  54.51000214
C    18.67000008   1.49000001  53.22999954
C    19.60000038   2.00999999  52.34000397
C    20.97999954   2.02999997  52.69000244
C    21.94999886   2.48000002  51.76000214
C    23.29000092   2.40999985  52.04000092
C    23.68999863   1.74000001  53.22999954
C    22.78000069   1.19999993  54.10999680
C    21.38000107   1.43000007  53.94000244
C    17.22999954   1.34000003  53.09999847
C    16.61999893   0.71999997  54.22000122
C    15.27999973   0.35999998  54.23999786
C    25.17999840   1.62000000  53.46000290
H    25.42095566   1.62000000  54.52303696
H    20.79000092   0.17999999  55.59000015
H    19.25000000   2.56999993  51.49000168
H    21.60000038   2.87999988  50.80999756
H    24.06999969   2.79000020  51.38999939
H    23.12999916   0.61000001  54.94999695
H    14.88000011  -0.12000000  55.13000107
H    25.79999924   2.34999990  52.93000031
H    25.32999992   0.59000003  53.11000061
