96

S    16.48999977   4.65999985  58.92000198
C    19.20999908   4.90000010  58.20000076
C    17.93000031   4.50000000  57.88999939
C    17.64000130   3.98999977  56.59000015
C    18.71000099   3.75000000  55.75000000
C    20.06000137   4.00999975  56.09000397
C    21.19999886   3.81999993  55.26000214
C    22.47999954   4.17000008  55.63000107
C    22.70999908   4.75000000  56.90999985
C    21.64999962   5.00000000  57.74000168
C    20.31999969   4.67000008  57.35000229
C    16.20000076   3.97000027  56.36000061
C    15.46000004   4.32999992  57.50999832
C    14.06999969   4.46000004  57.50000000
C    24.09000015   5.26000023  57.23999786
H    24.70998955   4.54024267  57.77447128
H    19.43000031   5.21000004  59.20999908
H    18.52000046   3.33999991  54.77000427
H    21.07000160   3.42000008  54.26000214
H    23.23999786   4.13999987  54.86000061
H    21.80999947   5.47999954  58.70999908
H    13.52000046   4.81999969  58.36000061
H    24.61000061   5.52999973  56.31000137
H    24.09000015   6.21000004  57.78999710
S    13.00000000   3.22000003  53.88000107
C    10.26999950   3.14000010  54.66999817
C    11.59000015   3.42000008  54.93000031
C    11.94000053   3.89999986  56.24000168
C    11.00999928   3.97000027  57.25000000
C     9.63999939   3.72000003  57.01000214
C     8.64000034   3.65000010  58.02000046
C     7.36000013   3.30000019  57.63999939
C     6.98999977   3.03999996  56.30000305
C     7.92999983   3.08999991  55.30000305
C     9.27999973   3.38999987  55.65000153
C    13.38000107   4.11999989  56.32999802
C    14.09000015   3.67000008  55.20000076
C    15.47999954   3.67000008  55.19000244
C     5.60999966   2.47000003  56.05999756
H     5.12765217   3.05874801  55.27973175
H     9.98000050   2.73999977  53.69999695
H    11.38000011   4.41000032  58.16999817
H     8.93000031   3.97000027  59.02000046
H     6.61000013   3.02999997  58.37999725
H     7.75000000   2.64999986  54.31999969
H    15.98000050   3.38999987  54.27000046
H     4.96000004   2.36000013  56.93999863
H     5.66999960   1.44999993  55.66999817
S    13.94000053   1.26999998  50.84000015
C    11.23000050   0.68000007  51.27999878
C    12.55000019   0.52999997  51.65000153
C    12.94999981  -0.04000000  52.90000153
C    11.96000004  -0.50000000  53.74000168
C    10.59999943  -0.29999998  53.43999863
C     9.53999996  -0.57999998  54.34999847
C     8.21000004  -0.39000002  54.02999878
C     7.83999968   0.25999999  52.81999969
C     8.85999966   0.69999999  52.00000000
C    10.22999954   0.43000001  52.25000000
C    14.34999943   0.19000000  53.22999954
C    15.01000023   0.93000001  52.22000122
C    16.36000061   1.26999998  52.29000092
C     6.40999985   0.67000002  52.56999969
H     6.01757526   0.15628004  51.69239044
H    10.98000050   1.25000000  50.38000107
H    12.20999908  -0.96000004  54.69999695
H     9.84000015  -0.67000002  55.38999939
H     7.46000004  -0.39999998  54.80999756
H     8.67999935   1.08999991  51.00000000
H    16.87999916   1.94000006  51.60999680
H     5.77000046   0.46999997  53.43999863
H     6.38999987   1.75999999  52.49000168
S    17.51000023  -0.23000000  55.79000092
C    20.23999977   0.25999999  55.27999878
C    18.92000008   0.39999998  54.92000198
C    18.52000046   0.99000001  53.68000031
C    19.48999977   1.42000008  52.78999710
C    20.84000015   1.14999998  53.09999847
C    21.84999847   1.56000006  52.18999863
C    23.18000031   1.58999991  52.55000305
C    23.57999992   1.14999998  53.83999634
C    22.65000153   0.51999998  54.64000320
C    21.25999832   0.57999998  54.34999847
C    17.09000015   0.83999997  53.40000153
C    16.42000008   0.14000000  54.43999863
C    15.06000042  -0.12000000  54.40000153
C    25.02000046   1.36000013  54.22000122
H    25.44556427   0.78548807  55.04275894
H    20.51000214  -0.20999999  56.22000122
H    19.14999962   1.84000003  51.84999847
H    21.55999947   2.00000000  51.24000168
H    23.95000076   2.16000009  52.04000092
H    23.00000000   0.23000000  55.63000107
H    14.65000057  -0.69000000  55.21999741
H    25.29000092   2.40999985  54.40000153
H    25.53999901   1.04999995  53.30999756
