96

S    17.53999901   5.13000011  58.87000275
C    20.22999954   5.03000021  58.22000122
C    18.94000053   4.74000025  57.84999847
C    18.60000038   4.44999981  56.49000168
C    19.62000084   4.44999981  55.56000137
C    20.96999931   4.65999985  55.90999985
C    22.06000137   4.53000021  55.00000000
C    23.36000061   4.81999969  55.34000015
C    23.67000198   5.10999966  56.69000244
C    22.63999939   5.26999998  57.58999634
C    21.28999901   4.99000025  57.28000259
C    17.14999962   4.38000011  56.38000107
C    16.44000053   4.86999989  57.50999832
C    15.06999969   5.10999966  57.48000336
C    25.05000114   5.65000010  57.02000046
H    25.62575722   5.10267544  57.76634979
H    20.48000145   5.40999985  59.20999908
H    19.47000122   4.11999989  54.52999878
H    21.84999847   4.21000004  53.99000168
H    24.13000107   4.75000000  54.56999969
H    22.88000107   5.59999990  58.60000229
H    14.60999966   5.55000019  58.36000061
H    25.59999847   5.78999996  56.07999802
H    24.82000160   6.65999985  57.36999893
S    13.92000008   3.63000011  53.97999573
C    11.25000000   3.81999993  54.51000214
C    12.51999950   4.03999996  54.98000336
C    12.82999992   4.63000011  56.25000000
C    11.77999973   4.76000023  57.14000320
C    10.44999981   4.48999977  56.76000214
C     9.31999969   4.53000021  57.62000275
C     8.05000019   4.18000031  57.25999832
C     7.83999968   3.63000011  55.97000122
C     8.88000011   3.56999993  55.06999969
C    10.18000031   4.02999973  55.41999817
C    14.27000046   4.63999987  56.43000031
C    14.98999977   4.15000010  55.30000305
C    16.36999893   3.98000002  55.28999710
C     6.40999985   3.17000008  55.77999878
H     5.84895992   3.80915952  55.09822845
H    11.10000038   3.30000019  53.55999756
H    11.97999954   5.01999950  58.18000031
H     9.42000008   4.78999996  58.67000198
H     7.26000023   4.19999981  58.01000214
H     8.75000000   3.19000006  54.06000137
H    16.87000084   3.58999991  54.41999817
H     5.91000032   3.21000004  56.76000214
H     6.38999987   2.11999989  55.45999908
S    17.73999977   5.26000023  52.77999878
C    20.43000031   5.44000053  52.00000000
C    19.14999962   5.00000000  51.75000000
C    18.84000015   4.56999969  50.41999817
C    19.88000107   4.36999989  49.52999878
C    21.21999931   4.73000002  49.82999802
C    22.25000000   4.67000008  48.86000061
C    23.54000092   5.09999990  49.09000015
C    23.88000107   5.55999994  50.38999939
C    22.88999939   5.61999989  51.35000229
C    21.52000046   5.35000038  51.09000397
C    17.39999962   4.48999977  50.22999573
C    16.69000053   4.84000015  51.40999603
C    15.31000042   5.00000000  51.38999939
C    25.31999969   5.88999987  50.70999908
H    25.81185150   5.07737446  51.24462128
H    20.71000099   5.92999983  52.93000031
H    19.68000031   3.98000002  48.54000092
H    22.00000000   4.36999989  47.84000015
H    24.21999931   5.07999992  48.23999786
H    23.08000183   6.05999994  52.31999969
H    14.86999989   5.49000025  52.25999832
H    25.90999985   6.17000008  49.82999802
H    25.20000076   6.72999954  51.39999771
S    14.11999893   3.72000003  47.84999847
C    11.43000031   3.75000000  48.61999893
C    12.74000072   4.02999973  48.92000198
C    13.10999966   4.55999994  50.20000076
C    12.10000038   4.82999992  51.11000061
C    10.75000000   4.65000010  50.75000000
C     9.76000023   4.88999987  51.75000000
C     8.45000076   4.56999969  51.47999573
C     7.99000025   4.11000013  50.21999741
C     8.97999954   3.77999997  49.31999969
C    10.36999893   4.03999996  49.51000214
C    14.56999969   4.59000015  50.27999878
C    15.26999950   4.26999998  49.09000015
C    16.64999962   4.11999989  49.09999847
C     6.57999992   3.72000003  49.86999893
H     6.09077740   4.23049307  49.04044724
H    11.18999958   3.33999991  47.63999939
H    12.35000038   5.17000008  52.11000061
H    10.03999901   5.09000015  52.77999878
H     7.71000004   4.59999990  52.27000427
H     8.71000004   3.35999990  48.34999847
H    17.12000084   3.75999975  48.20000076
H     6.01999998   3.82999992  50.80999756
H     6.60000038   2.63999987  49.68999863
