96

S    17.17000008   4.85000038  58.70999908
C    19.85000038   5.14999962  57.95999908
C    18.60000038   4.63999987  57.68000031
C    18.23999977   4.01999998  56.44000244
C    19.27000046   3.68999982  55.58000183
C    20.58000183   4.13999987  55.86999893
C    21.61999893   4.17000008  54.88999939
C    22.92000008   4.46000004  55.21999741
C    23.31999969   4.81999969  56.52999878
C    22.27999878   5.15999985  57.36999893
C    20.92000008   4.80999994  57.09999847
C    16.79999924   3.98999977  56.23000336
C    16.09000015   4.46000004  57.36000061
C    14.70999908   4.50000000  57.48000336
C    24.73999977   5.17000008  56.90999985
H    25.33528709   4.51016235  57.54114532
H    20.09000015   5.63000011  58.89999771
H    19.07999992   3.24000001  54.61000061
H    21.38999939   3.61000013  53.99000168
H    23.71000099   4.51000023  54.47000122
H    22.36999893   5.65999985  58.33000183
H    14.27999973   4.63000011  58.46000290
H    25.17000008   5.22000027  55.90000153
H    24.70000076   6.19999981  57.30999756
S    13.63000011   3.17000008  53.87000275
C    10.93000031   3.37000012  54.45999908
C    12.23000050   3.51000023  54.91000366
C    12.56999969   3.88999987  56.24000168
C    11.52999973   4.02999973  57.12999725
C    10.19000053   3.86999989  56.70999908
C     9.15000057   4.00999975  57.67000198
C     7.82000017   3.82999992  57.34000397
C     7.55999994   3.22000003  56.07999802
C     8.48999977   3.16000009  55.06999969
C     9.82999992   3.51999998  55.34999847
C    14.01999950   4.02999973  56.35000229
C    14.72000027   3.56999993  55.20999908
C    16.10999870   3.56999993  55.08999634
C     6.15999985   2.75999999  55.73999786
H     5.64175653   3.42732716  55.05137634
H    10.70000076   3.05000019  53.44999695
H    11.73999977   4.41000032  58.13000107
H     9.38000011   4.01999998  58.73000336
H     7.05999947   3.88999987  58.11000061
H     8.18000031   2.86999989  54.06999969
H    16.65999985   3.19000006  54.22999954
H     5.72000027   2.75999999  56.73999786
H     6.05000019   1.71000004  55.45000076
S    14.04999924   1.39999998  50.86000061
C    11.39000034   0.90000004  51.59000015
C    12.72999954   0.68000007  51.79999924
C    13.22000027   0.00000000  52.95999908
C    12.30000019  -0.38000000  53.92000198
C    10.92000008  -0.09999999  53.76999664
C     9.98999977  -0.55000001  54.75000000
C     8.64000034  -0.41999999  54.54999924
C     8.14000034   0.08000001  53.30999756
C     9.02999973   0.62000000  52.39999771
C    10.43000031   0.45000002  52.54000092
C    14.65999985   0.16000001  53.11000061
C    15.25000000   0.90999997  52.05999756
C    16.55999947   1.38000000  52.09999847
C     6.67999983  -0.05000000  52.95999908
H     6.43742466   0.29245943  51.95402908
H    11.03000069   1.54999995  50.79999924
H    12.55000019  -1.08999991  54.69999695
H    10.38000011  -1.21000004  55.52000046
H     7.94000053  -0.90000004  55.22999573
H     8.60999966   0.96000004  51.45999908
H    16.94000053   1.89999998  51.23000336
H     6.37000036  -1.08999991  53.11000061
H     6.00000000   0.46999997  53.64999771
S    17.97999954  -0.28999999  55.41999817
C    20.62999916   0.31000000  54.73999786
C    19.29000092   0.38000000  54.43000031
C    18.82999992   1.04999995  53.25000000
C    19.70999908   1.65999997  52.36999893
C    21.09000015   1.50000000  52.63999939
C    22.04999924   2.09999990  51.77000046
C    23.38000107   2.21000004  52.09999847
C    23.82999802   1.56000006  53.27000046
C    22.95000076   0.97999996  54.15999985
C    21.56999969   0.88000000  53.83999634
C    17.38999939   0.88999999  53.11000061
C    16.80999947   0.08000001  54.13000107
C    15.47999954  -0.29999998  54.15000153
C    25.25000000   1.92000008  53.61999893
H    25.76034164   1.21119142  54.27210617
H    20.92000008  -0.22000000  55.63999939
H    19.34999847   2.14000010  51.46999741
H    21.68000031   2.63999987  50.90000153
H    24.05999947   2.82999992  51.52000046
H    23.25000000   0.69000000  55.17000198
H    15.08999920  -0.97999996  54.89999771
H    25.22999954   2.87999988  54.13999939
H    25.81000137   2.13000011  52.70000076
