96

S    17.13999939   4.84000015  58.73000336
C    19.88000107   4.92999983  58.11999893
C    18.60000038   4.55999994  57.77000046
C    18.27000046   4.25000000  56.40999603
C    19.31999969   4.02999973  55.52999878
C    20.62999916   4.40000010  55.89000320
C    21.70999908   4.25000000  54.97000122
C    22.98000145   4.63999987  55.30000305
C    23.22000122   5.33999968  56.52000046
C    22.26000023   5.40000010  57.50000000
C    20.95000076   4.92000008  57.18999863
C    16.84000015   4.25000000  56.18999863
C    16.07999992   4.69000006  57.30999756
C    14.70999908   4.88999987  57.35000229
C    24.63000107   5.79999971  56.84000015
H    25.14351273   5.03686285  57.42483139
H    20.10000038   5.58000040  58.95999908
H    19.19000053   3.51000023  54.58000183
H    21.61000061   3.74000025  54.01000214
H    23.85999870   4.50000000  54.68999863
H    22.34999847   5.78999996  58.50999832
H    14.22999954   5.13999987  58.29999924
H    25.17000008   5.93999958  55.89000320
H    24.64999962   6.75000000  57.37999725
S    13.55000019   3.25999999  53.95999908
C    10.80999947   3.61000013  54.54999924
C    12.13000107   3.68000007  54.93000031
C    12.53999901   4.17000008  56.20999908
C    11.51000023   4.40000010  57.11000061
C    10.14999962   4.11999989  56.84000015
C     9.13999939   4.19000006  57.84000015
C     7.82999992   3.95000005  57.48000336
C     7.44999981   3.65000010  56.14999771
C     8.39999962   3.63000011  55.14999771
C     9.77000046   3.79999995  55.48999786
C    13.97999954   4.36999989  56.27999878
C    14.70000076   3.86999989  55.15999603
C    16.09000015   3.84000015  55.07999802
C     6.05000019   3.25999999  55.72999954
H     5.80082893   3.69426894  54.76179123
H    10.67000008   3.32999992  53.50999832
H    11.82000065   4.73000002  58.09000015
H     9.35000038   4.26000023  58.89999771
H     7.02000046   3.97000027  58.20999908
H     8.10000038   3.33999991  54.15000153
H    16.70999908   3.51999998  54.23999786
H     5.33999968   3.65999985  56.46999741
H     6.10000038   2.16000009  55.72999954
S    13.88000011   1.53999996  50.83000183
C    11.18999958   1.11000001  51.50000000
C    12.51999950   0.83999997  51.72000122
C    12.98999977   0.19000000  52.90999985
C    12.06999969  -0.16000001  53.88999939
C    10.67999935  -0.05000000  53.64999771
C     9.70000076  -0.48000002  54.58000183
C     8.38000011  -0.17000002  54.36999893
C     7.96999979   0.56000000  53.22999954
C     8.88000011   0.93999994  52.27000427
C    10.25000000   0.59999996  52.43999863
C    14.44000053   0.17000002  53.00000000
C    15.07999992   0.88000000  51.95000076
C    16.42000008   1.25000000  51.95999908
C     6.50000000   0.73000002  52.91999817
H     6.15763617  -0.07598132  52.27093506
H    10.77999973   1.72000003  50.70000076
H    12.27000046  -0.71000004  54.79999924
H     9.98999977  -1.13999999  55.40000153
H     7.55999994  -0.46999997  55.01999664
H     8.60000038   1.46000004  51.36000061
H    16.77999878   1.88999999  51.16000366
H     5.97000027   0.79999995  53.88000107
H     6.30999994   1.75000000  52.55000305
S    17.67000008  -0.20999999  55.41999817
C    20.36999893   0.34000003  54.72000122
C    19.02000046   0.41000003  54.45000076
C    18.56999969   1.16999996  53.31999969
C    19.47999954   1.64000010  52.38999939
C    20.86999893   1.54999995  52.63999939
C    21.84000015   2.11999989  51.77000046
C    23.16999817   2.21000004  52.12999725
C    23.62999916   1.58000004  53.30999756
C    22.72000122   0.97000003  54.13999939
C    21.31000137   1.01999998  53.89999771
C    17.13999939   0.99000001  53.13999939
C    16.48999977   0.28000000  54.18000031
C    15.19999981  -0.22000000  54.10999680
C    25.13000107   1.48000002  53.50999832
H    25.52299881   1.54430890  54.52465057
H    20.69000053  -0.14000000  55.63999939
H    19.10000038   2.17999983  51.52999878
H    21.53000069   2.73000002  50.93000031
H    23.94000053   2.73999977  51.56999969
H    23.02999878   0.32999998  54.95999908
H    14.78000069  -0.69999999  54.99000168
H    25.59000015   2.27999997  52.91999817
H    25.36000061   0.48000002  53.11000061
