96

S    17.26000023   4.92000008  58.81000137
C    19.96999931   5.23000002  58.02000046
C    18.68999863   4.77999973  57.77000046
C    18.39999962   4.26999998  56.46999741
C    19.32999992   4.02999973  55.47999954
C    20.65000153   4.48000002  55.75000000
C    21.68000031   4.33999968  54.78000259
C    22.98000145   4.72000027  55.06000137
C    23.32999992   5.25000000  56.32999802
C    22.32999992   5.40000010  57.27000427
C    20.96999931   5.03999996  57.04000092
C    16.95000076   4.17000008  56.32999802
C    16.17000008   4.51999998  57.47000122
C    14.80000019   4.67999983  57.57999802
C    24.76000023   5.63000011  56.62000275
H    25.26706314   4.96581697  57.31989288
H    20.27000046   5.59999990  59.00000000
H    19.15999985   3.42000008  54.59000015
H    21.47999954   3.98999977  53.76999664
H    23.77000046   4.44000006  54.36999893
H    22.53999901   5.86999989  58.22000122
H    14.34999943   5.07000017  58.48999786
H    25.29000092   5.78000021  55.66999817
H    24.67000008   6.63000011  57.06999969
S    13.68000031   3.38000011  54.02999878
C    10.98000050   3.19000006  54.69999695
C    12.23000050   3.63999987  55.01999664
C    12.63000011   4.28999996  56.23000336
C    11.61999893   4.65000010  57.11000061
C    10.31000042   4.19000006  56.86000061
C     9.22999954   4.42999983  57.77000046
C     7.92999983   4.11000013  57.45999908
C     7.59999990   3.48000002  56.23000336
C     8.59000015   3.33999991  55.27999878
C     9.96000004   3.61000013  55.59000015
C    14.07999992   4.36999989  56.42000198
C    14.80000019   3.94000006  55.27999878
C    16.17000008   3.71000004  55.26000214
C     6.14000034   3.21000004  55.94999695
H     5.80461788   3.79513431  55.09370422
H    10.85000038   2.66000009  53.75999832
H    11.90000057   5.03000021  58.09000015
H     9.46000004   4.80999994  58.75999832
H     7.09000015   4.07999992  58.15000153
H     8.27000046   3.05000019  54.29000092
H    16.62999916   3.19000006  54.41999817
H     5.58000040   3.44000006  56.86999893
H     5.96000004   2.15000010  55.70999908
S    17.54999924   5.36999989  52.63999939
C    20.25000000   5.46000004  51.81999969
C    18.96000099   5.01999950  51.62000275
C    18.53000069   4.46000004  50.37000275
C    19.45999908   4.42999983  49.34999847
C    20.84000015   4.63999987  49.61000061
C    21.91999817   4.26999998  48.75999832
C    23.22000122   4.53000021  49.09999847
C    23.64000130   5.26999998  50.24000168
C    22.63000107   5.49000025  51.16000366
C    21.27000046   5.19999981  50.86999893
C    17.09000015   4.34999990  50.20999908
C    16.44000053   4.75000000  51.39999771
C    15.06000042   4.94999981  51.45999908
C    25.09000015   5.56999969  50.54000092
H    25.38148880   5.05811882  51.45712280
H    20.52000046   6.11999989  52.63000107
H    19.13999939   3.98000002  48.40999985
H    21.54000092   3.97000027  47.78999710
H    24.04999924   4.30999994  48.43999863
H    22.84000015   5.91000032  52.12999725
H    14.55999947   5.44000053  52.29000092
H    25.75000000   5.28999996  49.69999695
H    25.00999832   6.65000010  50.72000122
S    13.82999992   4.11000013  47.76000214
C    11.14999962   3.82999992  48.56999969
C    12.42000008   4.30999994  48.81000137
C    12.86000061   4.67999983  50.12000275
C    11.87000084   4.84000015  51.06999969
C    10.52000046   4.46000004  50.84000015
C     9.56999969   4.65999985  51.88000107
C     8.25000000   4.46000004  51.53999710
C     7.86000013   3.89999986  50.30000305
C     8.76999950   3.72000003  49.27999878
C    10.14000034   3.93000007  49.55999756
C    14.30999947   4.65999985  50.31999969
C    14.96999931   4.35999966  49.09999847
C    16.34000015   4.11999989  49.05000305
C     6.40999985   3.58999991  49.99000168
H     5.89767218   4.15925312  49.21438980
H    10.88000107   3.42000008  47.58999634
H    12.20999908   5.00000000  52.09000015
H     9.88000011   5.14999962  52.80000305
H     7.39000034   4.80999994  52.09000015
H     8.45000076   3.33999991  48.30999756
H    16.79999924   4.00000000  48.06999969
H     5.86999989   3.51000023  50.94999695
H     6.38999987   2.53999996  49.66999817
