96

S    17.25000000   4.61999989  58.85000229
C    19.93000031   4.79999971  58.22000122
C    18.64999962   4.57999992  57.76000214
C    18.23999977   4.23999977  56.43000031
C    19.29999924   4.19000006  55.54999924
C    20.65000153   4.46999979  55.90000153
C    21.75000000   4.33999968  55.00000000
C    23.02999878   4.51000023  55.45999908
C    23.32999992   5.01999950  56.75000000
C    22.29000092   5.14999962  57.64999771
C    20.95999908   4.84000015  57.25000000
C    16.79000092   4.17000008  56.27999878
C    16.11999893   4.50000000  57.48000336
C    14.73999977   4.69999981  57.43999863
C    24.77000046   5.31000042  57.09999847
H    25.20948982   4.60114622  57.80176544
H    20.27000046   5.07000017  59.22000122
H    19.03000069   3.86999989  54.54999924
H    21.51000023   3.98999977  54.00000000
H    23.90000153   4.55000019  54.80999756
H    22.32999992   5.55000019  58.66000366
H    14.18000031   4.92999983  58.34000015
H    25.30999947   5.46000004  56.16000366
H    24.79999924   6.30000019  57.56999969
S    13.66000080   3.73000002  53.77999878
C    10.93999958   3.63000011  54.45000076
C    12.23999977   3.88000011  54.82999802
C    12.56000042   4.46000004  56.10000229
C    11.50000000   4.61000013  56.97999954
C    10.15999985   4.26000023  56.68000031
C     9.06999969   4.38000011  57.60000229
C     7.85000038   3.88000011  57.23999786
C     7.55999994   3.40000010  55.93000031
C     8.55000019   3.38999987  54.98000336
C     9.85999966   3.81999993  55.34000015
C    14.00000000   4.57999992  56.25999832
C    14.73000050   4.19999981  55.11000061
C    16.10999870   3.98999977  55.06999969
C     6.19999981   2.80999994  55.59000015
H     5.65014458   3.43126488  54.88304138
H    10.75000000   3.03999996  53.55999756
H    11.64999962   5.05000019  57.95999908
H     9.19000053   4.69999981  58.62999725
H     7.03000021   3.93000007  57.95000076
H     8.45000076   2.98000002  53.97999573
H    16.72999954   3.77999997  54.20999908
H     5.68000031   2.80999994  56.55000305
H     6.28000021   1.79000008  55.19000244
S    17.61000061   5.59000015  52.75000000
C    20.27000046   5.63000011  52.05999756
C    18.98999977   5.27999973  51.68000031
C    18.63999939   4.65999985  50.44000244
C    19.69000053   4.55000019  49.54000092
C    21.00000000   4.97000027  49.85000229
C    22.03000069   4.90999985  48.86000061
C    23.31999969   5.19000006  49.22999954
C    23.68000031   5.53999996  50.54999924
C    22.70000076   5.75999975  51.49000168
C    21.35000038   5.46999979  51.14999771
C    17.20000076   4.72000027  50.24000168
C    16.53000069   5.17000008  51.39999771
C    15.14999962   5.29999971  51.43000031
C    25.13000107   5.78999996  50.90999985
H    25.36484718   5.22778940  51.81380844
H    20.40999985   6.06999969  53.04000092
H    19.51000023   4.13000011  48.55999756
H    21.83000183   4.61000013  47.83000183
H    24.04000092   5.03000021  48.41999817
H    22.80999947   6.24000025  52.45999908
H    14.67000008   5.42999983  52.39999771
H    25.72999954   5.42000008  50.06999969
H    25.17000008   6.85999966  51.13999939
S    14.01000023   4.19999981  47.81999969
C    11.31000042   4.13999987  48.41999817
C    12.57999992   4.44000006  48.83999634
C    12.90999985   4.92999983  50.14999771
C    11.82999992   5.10999966  50.98999786
C    10.47999954   4.88999987  50.63999939
C     9.39999962   4.90999985  51.56999969
C     8.10999966   4.59000015  51.24000168
C     7.88000011   4.17000008  49.89999771
C     8.89999962   4.03999996  48.99000168
C    10.22999954   4.44999981  49.29000092
C    14.35999966   4.99000025  50.31999969
C    15.08999920   4.61999989  49.16999817
C    16.46999931   4.48999977  49.06999969
C     6.48999977   3.74000025  49.47999954
H     6.12599707   4.31812239  48.63066101
H    11.06999969   3.47000003  47.60000229
H    12.15999985   5.29999971  52.01000214
H     9.63000011   5.10999966  52.61000061
H     7.27999973   4.80999994  51.90999985
H     8.75000000   3.55999994  48.02999878
H    16.98999977   4.25000000  48.15000153
H     5.86000013   3.86000013  50.35999680
H     6.48000002   2.68000007  49.15999985
