96

S    17.35999870   5.28999996  58.88000107
C    20.06999969   5.23999977  58.11000061
C    18.76000023   4.92000008  57.84000015
C    18.38000107   4.44999981  56.53999710
C    19.40000153   4.19999981  55.63999939
C    20.76999855   4.34999990  55.97999954
C    21.81999969   4.19999981  55.02999878
C    23.11000061   4.61999989  55.26000214
C    23.45999908   5.17000008  56.52999878
C    22.49000168   5.35000038  57.48000336
C    21.12999916   5.03000021  57.19999695
C    16.93000031   4.40000010  56.40999603
C    16.25000000   4.88999987  57.56000137
C    14.88000011   5.10999966  57.54000092
C    24.90999985   5.42999983  56.86000061
H    25.25797844   4.76244783  57.64828110
H    20.29999924   5.80999947  59.01000214
H    19.19999886   3.98000002  54.59999847
H    21.53000069   3.71000004  54.10999680
H    23.94000053   4.42000008  54.59000015
H    22.63000107   5.86999989  58.43000031
H    14.29999924   5.35000038  58.43000031
H    25.55999947   5.27999973  55.98999786
H    25.03000069   6.48000002  57.15000153
S    13.73999977   3.88999987  53.95000076
C    11.06999969   3.76999998  54.52999878
C    12.30999947   4.21000004  54.94999695
C    12.65999985   4.55999994  56.29000092
C    11.59999943   4.69000006  57.16999817
C    10.29000092   4.30000019  56.79000092
C     9.21000004   4.48000002  57.70000076
C     7.90999985   4.25000000  57.31999969
C     7.64999962   3.77999997  56.00999832
C     8.63000011   3.75999975  55.04000092
C     9.98999977   3.95000005  55.43000031
C    14.09000015   4.76999998  56.44000244
C    14.80999947   4.32000017  55.30000305
C    16.18000031   4.11999989  55.27000046
C     6.21999979   3.38999987  55.72000122
H     5.87233829   4.01437187  54.89696503
H    11.05999947   3.40999985  53.50999832
H    11.75000000   4.92000008  58.22000122
H     9.48999977   4.69999981  58.73000336
H     7.11999989   4.28000021  58.06999969
H     8.36999989   3.42999983  54.03999710
H    16.56999969   3.63000011  54.38000107
H     5.56999969   3.40000010  56.60999680
H     6.03999996   2.36000013  55.38999939
S    14.11000061   1.89999998  50.97999954
C    11.39000034   1.38999999  51.45999908
C    12.69999981   1.31999993  51.88999939
C    13.15000057   0.69999999  53.09999847
C    12.18999958   0.14999999  53.93000031
C    10.82999992   0.32000002  53.60000229
C     9.80000019   0.08000001  54.56999969
C     8.48999977   0.41999999  54.33000183
C     8.05999947   0.85000002  53.04999924
C     9.02000046   1.13999999  52.11000061
C    10.39999962   0.93999994  52.37999725
C    14.57999992   0.76999998  53.34000015
C    15.25000000   1.35000002  52.22999954
C    16.60000038   1.65999997  52.11999893
C     6.65000010   1.28999996  52.70999908
H     6.13723373   0.86269486  51.84826660
H    11.17000008   1.92000008  50.54000092
H    12.23000050  -0.05000000  55.00000000
H    10.07999992  -0.23000000  55.56999969
H     7.82000017   0.48999998  55.18000031
H     8.84000015   1.67999995  51.18000031
H    17.07999992   2.10999990  51.25000000
H     6.05000019   1.07000005  53.61000061
H     6.69000053   2.37000012  52.56000137
S    17.93000031   0.31000000  55.59999847
C    20.58000183   0.59999996  54.80999756
C    19.26000023   0.90999997  54.59000015
C    18.79999924   1.54999995  53.39000320
C    19.73999977   2.00999999  52.48000336
C    21.12999916   1.81999993  52.68000031
C    22.15999985   2.22000003  51.77999878
C    23.47999954   2.09000015  52.14000320
C    23.84000015   1.36999989  53.30999756
C    22.88000107   0.82999998  54.15000153
C    21.52000046   1.13000000  53.88000107
C    17.35999870   1.36999989  53.25000000
C    16.75000000   0.69000000  54.34000015
C    15.40999985   0.32999998  54.38000107
C    25.29999924   1.08999991  53.56999969
H    25.59228516   1.31099617  54.59656143
H    20.86999893   0.07000000  55.70999908
H    19.45000076   2.37000012  51.50000000
H    21.94999886   2.76999998  50.86999893
H    24.23000145   2.66999984  51.60999680
H    23.11000061   0.23000000  55.01999664
H    14.84000015  -0.02000000  55.24000168
H    25.85000038   1.80999994  52.95999908
H    25.55000114   0.08000001  53.22000122
