96

S    17.02999878   5.00999975  58.72000122
C    19.77000046   5.23000002  58.09000015
C    18.50000000   4.84000015  57.74000168
C    18.12999916   4.46000004  56.40999603
C    19.18000031   4.32000017  55.52000046
C    20.52000046   4.67000008  55.81999969
C    21.53000069   4.55000019  54.82999802
C    22.82999992   4.90000010  55.12000275
C    23.15000153   5.29999971  56.44000244
C    22.20000076   5.40000010  57.43000031
C    20.84000015   5.09999990  57.15999985
C    16.69000053   4.32000017  56.23000336
C    15.92000008   4.65999985  57.36999893
C    14.55000019   4.84000015  57.44999695
C    24.61000061   5.65999985  56.65999985
H    25.05177498   5.08284330  57.47229767
H    19.98999977   5.56999969  59.09999847
H    18.89000130   3.88000011  54.56999969
H    21.24000168   4.18000031  53.85000229
H    23.57999992   4.71000004  54.36000061
H    22.42000198   5.77000046  58.43000031
H    14.02999973   5.26999998  58.29999924
H    25.22000122   5.55999994  55.75000000
H    24.68000031   6.67999983  57.05999756
S    13.42000008   3.63000011  53.81000137
C    10.73999977   3.53999996  54.59000015
C    12.02999973   3.91999984  54.87999725
C    12.39999962   4.39000034  56.18999863
C    11.40999985   4.59999990  57.12999725
C    10.08999920   4.18000031  56.86000061
C     9.02999973   4.32999992  57.80000305
C     7.75000000   3.91000009  57.52999878
C     7.36999989   3.49000001  56.23000336
C     8.36000061   3.37000012  55.27999878
C     9.72000027   3.67000008  55.56000137
C    13.85000038   4.48000002  56.29000092
C    14.53999996   4.05999994  55.12000275
C    15.92000008   3.91999984  55.13999939
C     5.92000008   3.35000014  55.83000183
H     5.55120945   3.98119950  55.02149582
H    10.59999943   3.12999988  53.59000397
H    11.63000011   4.90999985  58.15000153
H     9.30999947   4.80999994  58.73000336
H     7.05999947   4.02999973  58.36000061
H     8.10999966   3.09999990  54.26000214
H    16.46999931   3.68000007  54.22999954
H     5.26999998   3.49000001  56.70000076
H     5.73999977   2.31999993  55.48999786
S    17.34000015   5.56999969  52.64999771
C    20.05000114   5.65000010  51.95999908
C    18.75000000   5.38999987  51.59000015
C    18.36000061   4.86000013  50.31999969
C    19.37000084   4.55000019  49.41999817
C    20.72999954   4.76999998  49.75000000
C    21.80999947   4.67000008  48.83999634
C    23.09000015   5.14999962  49.02000046
C    23.36000061   5.73000002  50.27999878
C    22.37999916   5.88999987  51.23000336
C    21.04999924   5.46999979  50.97000122
C    16.92000008   4.90000010  50.12000275
C    16.22999954   5.26000023  51.30000305
C    14.85000038   5.46000004  51.31000137
C    24.65999985   6.43000031  50.59999847
H    25.26959991   5.82748842  51.27339935
H    20.29000092   6.10000038  52.91999817
H    19.11999893   4.23000002  48.40999985
H    21.51000023   4.23999977  47.88000107
H    23.85000038   5.09000015  48.23999786
H    22.65999985   6.39999962  52.15000153
H    14.34000015   5.91000032  52.15000153
H    25.36000061   6.51999998  49.75999832
H    24.50000000   7.46000004  50.93000031
S    13.73999977   3.63000011  47.90000153
C    11.03000069   3.72000003  48.53000259
C    12.32999992   3.95000005  48.92000198
C    12.71000004   4.57999992  50.14999771
C    11.76000023   4.96000004  51.07999802
C    10.44000053   4.55000019  50.76000214
C     9.39000034   4.85000038  51.65999985
C     8.07999992   4.51000023  51.38000107
C     7.76000023   3.82999992  50.18000031
C     8.71000004   3.51000023  49.22999954
C    10.03999901   3.91999984  49.52000046
C    14.14000034   4.84000015  50.27000046
C    14.80999947   4.30000019  49.15000153
C    16.18999863   4.44000006  49.02000046
C     6.32999992   3.35999990  50.04000092
H     5.88972759   3.97070003  49.25177002
H    10.77999973   3.19000006  47.62000275
H    11.95000076   5.56999969  51.95999908
H     9.55000019   5.38000011  52.60000229
H     7.30000019   4.63000011  52.11999893
H     8.59000015   2.75999999  48.44999695
H    16.76000023   4.01999998  48.20000076
H     5.68000031   3.45000005  50.91999817
H     6.21000004   2.34999990  49.62999725
