96

S    17.02000046   5.07000017  58.88000107
C    19.67000008   5.12000036  58.20999908
C    18.39999962   4.85000038  57.77000046
C    18.06999969   4.23000002  56.52000046
C    19.07999992   4.17000008  55.59000015
C    20.39999962   4.51000023  55.93999863
C    21.47999954   4.50000000  55.01999664
C    22.79999924   4.65000010  55.38000107
C    23.09999847   5.14999962  56.66999817
C    22.06999969   5.32999992  57.56999969
C    20.72000122   5.00999975  57.25999832
C    16.61999893   4.07999992  56.40999603
C    15.95000076   4.48000002  57.58999634
C    14.55999947   4.61000013  57.67000198
C    24.54000092   5.50000000  56.93999863
H    24.93282127   4.96433544  57.80420685
H    19.85000038   5.53999996  59.19000244
H    18.84000015   3.79999995  54.59000015
H    21.34000015   4.30999994  53.95000076
H    23.61999893   4.56999969  54.66999817
H    22.32000160   5.63000011  58.59000397
H    14.07999992   5.00999975  58.54999924
H    25.06999969   5.25000000  56.00999832
H    24.57999992   6.57999992  57.15000153
S    13.30000019   3.73000002  54.02999878
C    10.59999943   3.68000007  54.79000092
C    11.92000008   3.91000009  55.13000107
C    12.36999989   4.34999990  56.40999603
C    11.39000034   4.55000019  57.37999725
C    10.01999950   4.40000010  57.08000183
C     8.98999977   4.61000013  58.04999924
C     7.67000008   4.36999989  57.78999710
C     7.30999994   3.79999995  56.52999878
C     8.27000046   3.55999994  55.58000183
C     9.64999962   3.77999997  55.84000015
C    13.81999969   4.35999966  56.51000214
C    14.48999977   3.96000004  55.31999969
C    15.88000107   3.89999986  55.24000168
C     5.86000013   3.45999980  56.25999832
H     5.51933813   3.95679832  55.35157013
H    10.29000092   3.31999993  53.81999969
H    11.64000034   4.75000000  58.41999817
H     9.22000027   4.76999998  59.09999847
H     6.86999989   4.57999992  58.48999786
H     7.96999979   3.25000000  54.58000183
H    16.36000061   3.81000018  54.27000046
H     5.29999971   3.84000015  57.11999893
H     5.69999981   2.38000011  56.13999939
S    17.47999954   5.38999987  52.56999969
C    20.22000122   5.51000023  51.66999817
C    18.89999962   5.14999962  51.52999878
C    18.45999908   4.78999996  50.21999741
C    19.38999939   4.76999998  49.19000244
C    20.76000023   5.00999975  49.40000153
C    21.83000183   4.77999973  48.48999786
C    23.16999817   5.00999975  48.69999695
C    23.57000160   5.49000025  49.97000122
C    22.60999870   5.69999981  50.93000031
C    21.22999954   5.46000004  50.68000031
C    17.02000046   4.61999989  50.11000061
C    16.31999969   4.97000027  51.30000305
C    14.93000031   5.03000021  51.31999969
C    25.00999832   5.78000021  50.31999969
H    25.40152740   5.08236694  51.06034470
H    20.45000076   6.05999994  52.57999802
H    19.07999992   4.28999996  48.26000214
H    21.54999924   4.42999983  47.49000168
H    23.87000084   4.94999981  47.85999680
H    22.86000061   6.19999981  51.86999893
H    14.45000076   5.27999973  52.25999832
H    25.66999817   5.79999971  49.43999863
H    25.02000046   6.76000023  50.80999756
S    13.78999901   4.15999985  47.67000198
C    11.05000019   4.13999987  48.23999786
C    12.34000015   4.25000000  48.68999863
C    12.74000072   4.56999969  50.02999878
C    11.67000008   4.76000023  50.89000320
C    10.31999969   4.56999969  50.48999786
C     9.22999954   4.81999969  51.37000275
C     7.92999983   4.61000013  50.97999954
C     7.63999987   4.36999989  49.61000061
C     8.60999966   4.23000002  48.64999771
C     9.94999981   4.33999968  49.12000275
C    14.18000031   4.67000008  50.20000076
C    14.92000008   4.51000023  49.00000000
C    16.29999924   4.38000011  48.93000031
C     6.25000000   3.86000013  49.33000183
H     5.70754194   4.48810959  48.62337875
H    10.88000107   3.79999995  47.22999954
H    11.89000034   5.15999985  51.88000107
H     9.36999989   5.14999962  52.39999771
H     7.07999992   4.63999987  51.65999985
H     8.31999969   4.07999992  47.61000061
H    16.81999969   4.21000004  48.00000000
H     5.69999981   3.77999997  50.27999878
H     6.43000031   2.86000013  48.92000198
