96

S    17.45000076   4.88000011  58.75999832
C    20.06000137   5.42000008  57.97000122
C    18.85000038   4.82999992  57.67000198
C    18.55999947   4.32999992  56.36000061
C    19.57999992   4.23000002  55.43000031
C    20.89999962   4.63000011  55.72000122
C    22.04999924   4.26999998  54.97000122
C    23.31000137   4.69000006  55.31999969
C    23.50000000   5.32000017  56.58000183
C    22.42000198   5.55999994  57.39999771
C    21.09000015   5.23000002  57.01000214
C    17.12000084   4.25000000  56.20999908
C    16.38000107   4.46000004  57.41000366
C    15.00000000   4.41000032  57.49000168
C    24.93999863   5.69000006  56.88000107
H    25.35358238   4.96979666  57.58594513
H    20.25000000   5.75999975  58.97999573
H    19.38999939   3.49000001  54.65000153
H    21.90000153   3.81999993  53.99000168
H    24.25000000   4.55000019  54.79000092
H    22.56999969   5.93999958  58.40000153
H    14.39000034   4.55999994  58.37999725
H    25.56999969   5.75000000  55.97999954
H    24.93000031   6.76000023  57.14000320
S    13.89000034   3.42999983  53.82999802
C    11.21999931   3.30000019  54.52000046
C    12.48000050   3.71000004  54.87999725
C    12.81999969   4.28000021  56.14999771
C    11.75000000   4.46999979  57.01000214
C    10.44999981   3.98000002  56.77000046
C     9.38000011   4.00000000  57.71999741
C     8.10999966   3.63999987  57.32999802
C     7.85000038   3.10999990  56.04000092
C     8.85999966   3.02999997  55.11000061
C    10.15999985   3.48000002  55.45000076
C    14.27000046   4.28999996  56.30000305
C    14.98000050   3.91000009  55.13999939
C    16.36999893   3.86999989  55.07999802
C     6.42000008   2.72000027  55.72999954
H     5.88586760   3.33247137  55.00358200
H    10.98000050   2.86999989  53.54999924
H    11.97000027   4.86999989  58.00000000
H     9.65999985   4.63999987  58.54999924
H     7.23999977   3.89999986  57.91999817
H     8.56000042   2.86000013  54.08000183
H    16.87999916   3.42999983  54.22999954
H     5.77000046   2.56000018  56.59999847
H     6.44000006   1.72000003  55.27999878
S    14.01999950   1.58000004  51.05999756
C    11.39999962   0.90999997  51.58000183
C    12.71000004   0.86000001  52.01000214
C    13.12999916   0.20999999  53.20999908
C    12.18000031  -0.34000003  54.06000137
C    10.82999992  -0.16000001  53.68999863
C     9.80000019  -0.74000001  54.48999786
C     8.47000027  -0.46999997  54.31999969
C     8.07999992   0.11000000  53.09000015
C     9.01000023   0.50999999  52.15000153
C    10.39000034   0.44000000  52.44999695
C    14.55999947   0.41999999  53.37999725
C    15.19999981   1.07000005  52.29000092
C    16.55999947   1.36000013  52.25999832
C     6.61999989   0.32000002  52.74000168
H     6.20140409  -0.09859562  51.82476807
H    11.09000015   1.39999998  50.65999985
H    12.44999981  -1.10000002  54.78000259
H    10.11000061  -1.26999998  55.38999939
H     7.73999977  -0.75000000  55.08999634
H     8.67000008   0.93000001  51.20999908
H    16.92000008   1.82999992  51.35000229
H     6.00000000  -0.11000000  53.54000092
H     6.25999975   1.35000002  52.81999969
S    17.81999969  -0.04000000  55.77000046
C    20.52999878   0.25999999  55.00999832
C    19.19000053   0.41000003  54.75000000
C    18.81000137   0.87000000  53.44999695
C    19.71999931   1.26999998  52.50000000
C    21.09000015   1.34000003  52.84000015
C    22.04999924   1.84000003  51.90999985
C    23.38000107   1.76999998  52.23999786
C    23.81999969   1.19999993  53.47000122
C    22.89999962   0.68000007  54.34000015
C    21.50000000   0.75999999  54.09999847
C    17.35999870   0.88000000  53.29999924
C    16.73999977   0.22000000  54.38999939
C    15.36000061   0.02000000  54.43999863
C    25.26000023   0.75000000  53.60000229
H    25.66682816   1.05690515  54.56353760
H    20.94000053  -0.17999999  55.91999817
H    19.40000153   1.52999997  51.49000168
H    21.68000031   2.31999993  51.00999832
H    24.05999947   2.14000010  51.46999741
H    23.26999855   0.14999999  55.21999741
H    14.98000050  -0.48000002  55.33000183
H    25.95000076   1.01999998  52.78999710
H    25.28000069  -0.34000003  53.53000259
