96

S    17.17000008   5.05999994  58.92000198
C    19.88000107   4.90000010  58.20000076
C    18.55999947   4.65999985  57.90000153
C    18.15000153   4.23999977  56.59000015
C    19.13999939   4.15000010  55.63000107
C    20.52000046   4.30999994  55.89000320
C    21.52000046   4.25000000  54.87999725
C    22.86999893   4.34999990  55.11000061
C    23.19999886   4.78999996  56.42000198
C    22.29000092   4.84000015  57.44999695
C    20.88999939   4.71000004  57.22000122
C    16.70999908   4.36999989  56.45000076
C    16.00000000   4.79999971  57.60000229
C    14.63000107   5.00000000  57.67000198
C    24.56999969   5.32000017  56.79000092
H    25.11096382   4.65803099  57.46620560
H    20.20000076   5.18000031  59.20000076
H    19.01000023   3.96000004  54.55999756
H    21.25999832   3.96000004  53.87000275
H    23.57999992   4.21999979  54.29999924
H    22.60999870   5.18000031  58.43999863
H    14.14999962   5.26000023  58.61000061
H    25.17999840   5.32000017  55.86999893
H    24.37999916   6.32000017  57.18000031
S    13.50000000   3.82999992  54.00000000
C    10.81999969   3.75000000  54.64000320
C    12.07999992   4.13000011  55.04000092
C    12.41000080   4.69999981  56.31000137
C    11.38000011   4.80999994  57.22000122
C    10.08999920   4.34999990  56.88000107
C     9.02999973   4.33999968  57.84000015
C     7.75000000   3.98000002  57.50000000
C     7.44000006   3.71000004  56.13999939
C     8.40999985   3.65999985  55.17000198
C     9.76000023   3.88000011  55.56000137
C    13.85000038   4.73000002  56.53999710
C    14.52999973   4.32999992  55.35999680
C    15.90999985   4.17000008  55.31999969
C     6.05999994   3.17000008  55.86000061
H     5.57699776   3.71692920  55.05026245
H    10.62999916   3.38000011  53.62999725
H    11.65999985   5.05999994  58.23999786
H     9.19000053   4.65999985  58.86000061
H     6.97000027   4.03999996  58.25000000
H     8.26000023   3.33999991  54.13000107
H    16.34000015   3.72000003  54.43000031
H     5.49000025   3.19999981  56.79999924
H     6.12999964   2.15000010  55.45000076
S    13.88000011   1.93000007  50.77000046
C    11.19999981   1.43999994  51.44000244
C    12.53000069   1.23000002  51.69000244
C    12.94999981   0.50000000  52.84999847
C    11.98999977   0.00000000  53.70999908
C    10.60999966   0.19999999  53.47000122
C     9.61999989  -0.37000000  54.33000183
C     8.30000019  -0.25000000  53.99000168
C     7.86000013   0.48999998  52.84999847
C     8.80999947   1.19000006  52.15000153
C    10.19999981   1.02999997  52.36000061
C    14.35999966   0.74000001  53.09999847
C    14.98999977   1.50999999  52.09000015
C    16.32999992   1.88999999  52.19999695
C     6.38000011   0.73000002  52.67000198
H     6.01019764   0.31752789  51.73127365
H    10.93999958   2.02999997  50.56999969
H    12.35999966  -0.44000000  54.62999725
H     9.98000050  -0.96000004  55.17000198
H     7.63999987  -0.81000000  54.64000320
H     8.53999996   1.80999994  51.29000092
H    16.68000031   2.61999989  51.47999573
H     5.92000008   0.19999999  53.50999832
H     6.24000025   1.80999994  52.84999847
S    17.57999992   0.08000001  55.52999878
C    20.29999924   0.38000000  54.86000061
C    18.96999931   0.64000005  54.59000015
C    18.51000023   1.39999998  53.46000290
C    19.44000053   1.94000006  52.58999634
C    20.81000137   1.62000000  52.80000305
C    21.77999878   2.09999990  51.88000107
C    23.12999916   2.00999999  52.11000061
C    23.54000092   1.33000004  53.27999878
C    22.65999985   0.71999997  54.15999985
C    21.25999832   0.90000004  53.95999908
C    17.06999969   1.39999998  53.29000092
C    16.43000031   0.64999998  54.31000137
C    15.06000042   0.41999999  54.27000046
C    25.00999832   0.99000001  53.43000031
H    25.46412849   1.35188293  54.35244751
H    20.59000015  -0.32999998  55.63000107
H    19.17000008   2.33999991  51.62000275
H    21.50000000   2.69000006  51.02000427
H    23.85000038   2.48000002  51.44000244
H    23.00000000   0.06000000  54.94999695
H    14.60999966  -0.25000000  54.99000168
H    25.61000061   1.36000013  52.58999634
H    25.15000153  -0.09000000  53.34000015
