96

S    17.26000023   5.35000038  58.74000168
C    19.96999931   5.69999981  58.02000046
C    18.67000008   5.40999985  57.65999603
C    18.37000084   4.97000027  56.32999802
C    19.36000061   4.86999989  55.38000107
C    20.71000099   5.05000019  55.77000046
C    21.80999947   4.80999994  54.88999939
C    23.12000084   5.01999950  55.26000214
C    23.36000061   5.40999985  56.60999680
C    22.37999916   5.53999996  57.56000137
C    21.02999878   5.40999985  57.11999893
C    16.93000031   4.76000023  56.19999695
C    16.20000076   4.85000038  57.41000366
C    14.80999947   4.86000013  57.56000137
C    24.76000023   5.84000015  56.97999954
H    25.28632545   5.07896233  57.55611038
H    20.20000076   5.98999977  59.03999710
H    19.18000031   4.53000021  54.36000061
H    21.53000069   4.42000008  53.92000198
H    23.92000008   5.05000019  54.52999878
H    22.46999931   5.93999958  58.56999969
H    14.26000023   5.05000019  58.47000122
H    25.29000092   6.12999964  56.05999756
H    24.54999924   6.77999973  57.50999832
S    13.68999958   4.05000019  53.82999802
C    11.05999947   3.68999982  54.54999924
C    12.31999969   4.07000017  54.94999695
C    12.65999985   4.51000023  56.26999664
C    11.59000015   4.55999994  57.15000153
C    10.25000000   4.28999996  56.79000092
C     9.22000027   4.39000034  57.77000046
C     7.90999985   4.07000017  57.47000122
C     7.62000036   3.68999982  56.12999725
C     8.60000038   3.58000016  55.17000198
C     9.96999931   3.84999990  55.44000244
C    14.09000015   4.74000025  56.37000275
C    14.77000046   4.59999990  55.13000107
C    16.14999962   4.55999994  55.06000137
C     6.21999979   3.25000000  55.76000214
H     5.72185040   3.99010801  55.13375473
H    10.85999966   3.33999991  53.54000092
H    11.78999996   4.69999981  58.20999908
H     9.42000008   4.77999973  58.75999832
H     7.21000004   3.98999977  58.29000092
H     8.43999958   3.25999999  54.15000153
H    16.51000023   4.21999979  54.09000015
H     5.64000034   3.03999996  56.65999985
H     6.21000004   2.34999990  55.13999939
S    17.92000008   6.14000034  52.43999863
C    20.63999939   6.11000013  51.77999878
C    19.34000015   5.84999990  51.42000198
C    18.94000053   5.19000006  50.20999908
C    19.93999863   4.82999992  49.31999969
C    21.28000069   5.07000017  49.68000031
C    22.32999992   4.69999981  48.79000092
C    23.61999893   5.15999985  48.94000244
C    23.98999977   5.79999971  50.14999771
C    23.05000114   6.02999973  51.11999893
C    21.68000031   5.75000000  50.89000320
C    17.52000046   4.88000011  50.17000198
C    16.80999947   5.33999968  51.31999969
C    15.42000008   5.38000011  51.43000031
C    25.45000076   6.10000038  50.40999985
H    25.90461922   5.48200178  51.18427277
H    20.92000008   6.67000008  52.67000198
H    19.65999985   4.23999977  48.44999695
H    21.93000031   4.18000031  47.91999817
H    24.34999847   4.81999969  48.20000076
H    23.26999855   6.50000000  52.08000183
H    14.96999931   5.84000015  52.29999924
H    26.02000046   6.11999989  49.47000122
H    25.53999901   7.14999962  50.70000076
S    14.27999973   4.44999981  47.71999741
C    11.57999992   4.21000004  48.40999985
C    12.84999943   4.57999992  48.76999664
C    13.22999954   5.05000019  50.06999969
C    12.23999977   5.28999996  51.00999832
C    10.90000057   4.98000002  50.68999863
C     9.90999985   5.22000027  51.69000244
C     8.60999966   4.86000013  51.45000076
C     8.31999969   4.28000021  50.19000244
C     9.23999977   3.98999977  49.20999908
C    10.57999992   4.42000008  49.40000153
C    14.67000008   5.07000017  50.28999710
C    15.36999893   4.72000027  49.10999680
C    16.72999954   4.46000004  49.09000015
C     6.91999960   3.72000003  49.99000168
H     6.31314659   4.27687693  49.27605820
H    11.36999989   3.81000018  47.42000198
H    12.48999977   5.63000011  52.00000000
H    10.13000011   5.69999981  52.63999939
H     7.79999971   5.09000015  52.14000320
H     8.84000015   3.53999996  48.29999924
H    17.14999962   4.15999985  48.13999939
H     6.44999981   3.68999982  50.97999954
H     7.11000013   2.66000009  49.78000259
