96

S    17.25000000   5.18000031  58.76999664
C    19.96999931   5.15999985  58.13999939
C    18.68999863   4.78999996  57.81000137
C    18.32999992   4.33999968  56.50000000
C    19.37000084   4.23999977  55.59999847
C    20.69000053   4.67999983  55.84000015
C    21.75000000   4.48000002  54.91000366
C    23.02000046   4.88000011  55.25000000
C    23.31000137   5.52999973  56.47999573
C    22.32999992   5.58000040  57.43999863
C    21.00000000   5.14999962  57.15999985
C    16.87999916   4.32999992  56.37000275
C    16.10999870   4.69000006  57.50999832
C    14.72000027   4.77999973  57.51999664
C    24.72999954   5.98999977  56.70999908
H    25.29936218   5.27829647  57.30783463
H    20.10999870   5.61999989  59.10999680
H    19.11000061   3.84000015  54.61999893
H    21.64999962   4.00000000  53.94000244
H    23.80000114   4.79999971  54.48999786
H    22.60999870   5.89999962  58.43999863
H    14.21000004   5.13999987  58.40000153
H    25.22999954   6.11999989  55.73999786
H    24.72999954   6.97000027  57.19999695
S    13.81999969   3.52999973  53.83999634
C    11.07999992   3.26999998  54.43999863
C    12.34000015   3.68000007  54.80999756
C    12.64999962   4.19000006  56.11000061
C    11.63000011   4.46000004  57.01000214
C    10.32999992   3.98999977  56.70999908
C     9.19000053   4.15999985  57.55000305
C     7.90000010   3.81999993  57.21000290
C     7.69999981   3.12999988  55.98999786
C     8.75000000   2.99000001  55.11000061
C    10.07999992   3.37000012  55.44000244
C    14.07999992   4.33999968  56.36000061
C    14.84000015   4.00999975  55.20999908
C    16.22999954   4.02999973  55.15999603
C     6.26999950   2.82000017  55.59999847
H     5.93576145   3.38891554  54.73240280
H    10.80999947   2.82000017  53.48999786
H    11.77999973   4.86999989  58.01000214
H     9.43000031   4.61999989  58.50000000
H     7.13999987   3.96000004  57.97000122
H     8.56000042   2.82999992  54.05000305
H    16.84000015   3.75000000  54.29999924
H     5.52999973   3.10999990  56.35000229
H     6.17000008   1.75000000  55.35999680
S    17.76000023   5.56999969  52.67000198
C    20.43000031   5.56999969  52.02000046
C    19.14999962   5.26000023  51.62000275
C    18.82999992   4.75000000  50.31999969
C    19.85999870   4.65000010  49.40999985
C    21.19999886   4.92999983  49.77000427
C    22.26000023   4.76999998  48.82999802
C    23.52000046   5.19000006  49.16999817
C    23.84000015   5.69000006  50.45999908
C    22.82999992   5.79999971  51.38999939
C    21.48999977   5.45000029  51.07999802
C    17.38000107   4.65999985  50.20999908
C    16.65999985   5.05999994  51.37000275
C    15.27999973   5.14999962  51.42000198
C    25.28000069   6.03999996  50.73999786
H    25.70017433   5.39193487  51.50913239
H    20.61000061   5.97000027  53.02000046
H    19.65999985   3.98000002  48.59000397
H    22.13000107   4.28999996  47.85999680
H    24.25000000   5.12000036  48.36999893
H    23.13999939   6.19000006  52.36000061
H    14.78999996   5.31000042  52.37999725
H    25.73999786   5.92999983  49.75000000
H    25.25000000   7.07999992  51.11000061
S    14.11999893   4.19000006  47.78999710
C    11.43000031   3.86000013  48.50999832
C    12.68000031   4.34999990  48.81999969
C    13.03999996   4.82999992  50.12000275
C    12.01000023   4.97000027  51.03000259
C    10.70000076   4.53000021  50.72999954
C     9.64999962   4.69000006  51.68000031
C     8.34000015   4.51000023  51.27999878
C     8.01000023   3.95000005  50.01999664
C     9.01000023   3.72000003  49.09999847
C    10.36999893   4.00000000  49.43000031
C    14.47999954   4.96000004  50.27999878
C    15.21999931   4.61000013  49.12000275
C    16.60000038   4.51999998  49.06000137
C     6.56000042   3.67000008  49.68999863
H     6.33924961   3.94059753  48.65745544
H    11.21000099   3.45999980  47.52999878
H    12.30999947   5.46000004  51.95999908
H     9.85999966   4.92999983  52.70999908
H     7.57000017   4.65000010  52.02999878
H     8.73000050   3.42000008  48.09999847
H    17.02000046   4.26000023  48.09000015
H     6.05999994   4.26999998  50.45999908
H     6.37000036   2.59999990  49.87999725
