96

S    17.06999969   5.13999987  58.69999695
C    19.77000046   5.17000008  58.04999924
C    18.48999977   4.80999994  57.69000244
C    18.15999985   4.26000023  56.40999603
C    19.15999985   4.09000015  55.47000122
C    20.50000000   4.40000010  55.79999924
C    21.53000069   4.17000008  54.85000229
C    22.79999924   4.63000011  55.13000107
C    23.12000084   5.15999985  56.39999771
C    22.14999962   5.31000042  57.36999893
C    20.79999924   4.94000006  57.09999847
C    16.72000122   4.30000019  56.22000122
C    16.00000000   4.84000015  57.30999756
C    14.60999966   4.88000011  57.39999771
C    24.54000092   5.51999998  56.75000000
H    25.02377319   4.85836983  57.46854782
H    19.96999931   5.55000019  59.05000305
H    18.86999893   3.68000007  54.50000000
H    21.35000038   3.84999990  53.82999802
H    23.51000023   4.46999979  54.33000183
H    22.34999847   5.69999981  58.36000061
H    14.07999992   5.10999966  58.30999756
H    25.06000137   5.66999960  55.79999924
H    24.47999954   6.51000023  57.22999954
S    13.43000031   3.48000002  53.92000198
C    10.72000027   3.30999994  54.68000031
C    12.02000046   3.65999985  54.98000336
C    12.38999939   4.36999989  56.16000366
C    11.39999962   4.61000013  57.09999847
C    10.06000042   4.23000002  56.86000061
C     9.11000061   4.48999977  57.88000107
C     7.78999996   4.25000000  57.57999802
C     7.40999985   3.56999993  56.38999939
C     8.31999969   3.30999994  55.38999939
C     9.68999958   3.63000011  55.61000061
C    13.83999920   4.51000023  56.29000092
C    14.56999969   4.05000019  55.17000198
C    15.95000076   3.89999986  55.12000275
C     5.95000029   3.24000001  56.20999908
H     5.53928137   3.78526402  55.36023712
H    10.47999954   2.69000006  53.81999969
H    11.69999981   4.94000006  58.09000015
H     9.39999962   4.81999969  58.88000107
H     7.18999958   4.74000025  58.34999847
H     8.01999950   2.73999977  54.52000046
H    16.39999962   3.42999983  54.25000000
H     5.35000038   3.40999985  57.11999893
H     5.84999990   2.16000009  56.05999756
S    14.09000015   1.52999997  50.86000061
C    11.46000004   0.93000001  51.46999741
C    12.79000092   0.71999997  51.76000214
C    13.25000000   0.17999999  53.01000214
C    12.28999996  -0.17000002  53.95000076
C    10.92000008  -0.03000000  53.64999771
C     9.92999935  -0.32999998  54.62999725
C     8.60999966  -0.16000001  54.29000092
C     8.17000008   0.41999999  53.06999969
C     9.10000038   0.79999995  52.12999725
C    10.47000027   0.50999999  52.38999939
C    14.68000031   0.41999999  53.18000031
C    15.27999973   1.13999999  52.11999893
C    16.62999916   1.47000003  52.09000015
C     6.69000053   0.65999997  52.90000153
H     6.27640057   0.17508975  52.01575089
H    11.19999981   1.53999996  50.61000061
H    12.57999992  -0.46999997  54.94999695
H    10.11000061  -0.71999997  55.63000107
H     7.79999971  -0.41000003  54.95999908
H     8.82000065   1.36999989  51.25000000
H    17.11000061   1.98000002  51.25999832
H     6.06999969   0.38000000  53.75999832
H     6.63999987   1.74000001  52.70999908
S    17.89999962   0.16000001  55.65999985
C    20.52999878   0.46000001  54.86000061
C    19.20999908   0.76999998  54.64000320
C    18.81999969   1.29999995  53.36999893
C    19.78000069   1.69000006  52.44999695
C    21.15999985   1.53999996  52.74000168
C    22.20999908   2.06999993  51.93999863
C    23.54999924   1.82999992  52.16999817
C    23.85999870   1.12000000  53.36000061
C    22.90999985   0.75000000  54.29000092
C    21.54000092   0.97999996  54.01000214
C    17.38000107   1.13999999  53.22999954
C    16.77000046   0.50000000  54.34000015
C    15.44000053   0.11000000  54.31000137
C    25.29000092   0.71000004  53.61999893
H    25.65438461   1.11725473  54.56311417
H    20.84000015  -0.14000000  55.70999908
H    19.45999908   2.14000010  51.52000046
H    21.86000061   2.63999987  51.09000397
H    24.28999901   1.87000012  51.38000107
H    23.15000153   0.08000001  55.11000061
H    15.03000069  -0.48000002  55.12000275
H    25.98999977   0.97000003  52.81999969
H    25.27000046  -0.39000002  53.62999725
