96

S    17.05999947   4.55999994  58.73000336
C    19.75000000   4.61000013  58.06999969
C    18.45999908   4.38000011  57.64999771
C    18.09000015   3.88000011  56.36000061
C    19.10000038   3.65000010  55.45000076
C    20.42000008   4.09000015  55.72999954
C    21.47999954   4.09000015  54.78000259
C    22.76000023   4.50000000  55.10000229
C    23.08000183   4.92000008  56.42000198
C    22.03000069   5.10999966  57.28000259
C    20.72000122   4.59999990  57.02999878
C    16.64999962   3.71000004  56.25999832
C    15.95000076   4.01999998  57.44999695
C    14.56999969   4.21999979  57.44999695
C    24.51999855   5.26999998  56.70999908
H    24.96913147   4.64264297  57.47993469
H    19.89999962   5.15999985  59.00000000
H    18.77000046   3.31999993  54.47000122
H    21.27000046   3.81000018  53.75000000
H    23.46999931   4.34999990  54.29999924
H    22.17000008   5.59000015  58.25000000
H    14.21000004   4.63000011  58.39000320
H    25.07999802   5.44000053  55.77999878
H    24.44000053   6.23000050  57.22999954
S    13.34000015   3.30000019  53.85000229
C    10.65000057   3.12000012  54.64000320
C    11.92999935   3.54999995  54.88999939
C    12.32999992   4.07999992  56.16000366
C    11.36999989   4.32000017  57.12999725
C    10.01999950   3.95000005  56.90000153
C     8.98999977   4.19000006  57.84999847
C     7.76000023   3.65000010  57.57999802
C     7.37999964   3.07000017  56.33999634
C     8.32999992   2.99000001  55.34999847
C     9.68000031   3.33999991  55.63999939
C    13.78000069   4.02999973  56.31000137
C    14.50000000   3.63999987  55.14999771
C    15.86999989   3.44000006  55.13000107
C     5.92999983   2.79000020  56.03000259
H     5.57424736   3.41612482  55.21176910
H    10.39999962   2.53999996  53.75000000
H    11.67000008   4.82999992  58.04000092
H     9.07999992   4.77999973  58.75999832
H     6.94999981   3.73000002  58.30999756
H     8.06999969   2.63000011  54.36000061
H    16.34000015   3.28999996  54.15999985
H     5.23999977   2.86000013  56.88000107
H     5.84000015   1.72000003  55.79999924
S    17.71000099   5.00999975  52.64999771
C    20.34000015   5.47999954  51.77000046
C    19.09000015   4.97000027  51.53999710
C    18.72999954   4.51999998  50.22999573
C    19.77000046   4.35999966  49.31999969
C    21.09000015   4.78999996  49.54000092
C    22.20999908   4.65000010  48.67000198
C    23.52000046   4.84000015  49.05000305
C    23.74000168   5.32000017  50.37000275
C    22.72000122   5.69999981  51.20999908
C    21.38999939   5.38999987  50.81999969
C    17.28999901   4.44999981  50.08999634
C    16.61000061   4.79999971  51.27999878
C    15.21999931   4.92000008  51.31000137
C    25.15000153   5.68000031  50.77999878
H    25.55669594   5.10919952  51.61479568
H    20.51000214   5.88999987  52.77000046
H    19.40000153   4.07999992  48.33000183
H    22.06999969   4.28999996  47.64999771
H    24.38999939   4.48999977  48.50000000
H    22.90999985   6.07999992  52.21000290
H    14.75000000   4.92999983  52.28000259
H    25.81999969   5.60999966  49.91000366
H    25.13999939   6.75000000  51.03000259
S    14.01999950   3.67000008  47.77000046
C    11.28999901   3.61000013  48.46000290
C    12.56999969   4.01999998  48.74000168
C    13.01000023   4.48999977  50.01999664
C    12.02000046   4.72000027  50.96000290
C    10.67000008   4.41000032  50.63000107
C     9.61000061   4.41000032  51.59000015
C     8.31999969   3.98999977  51.39999771
C     7.90999985   3.53999996  50.12000275
C     8.89000034   3.47000003  49.15000153
C    10.24000072   3.81999993  49.38999939
C    14.45000076   4.59999990  50.19000244
C    15.15999985   4.21000004  49.02000046
C    16.54000092   4.15000010  48.94000244
C     6.48999977   3.03999996  49.98000336
H     6.04364824   3.57845592  49.14397812
H    11.09000015   3.10999990  47.50999832
H    12.25000000   5.00999975  51.97999954
H     9.84000015   4.71000004  52.61000061
H     7.67000008   4.07000017  52.27000427
H     8.60999966   3.19000006  48.13999939
H    17.07999992   3.78999996  48.06000137
H     5.92000008   3.21000004  50.90000153
H     6.51999998   1.97000003  49.72999954
