96

S    17.17000008   4.99000025  58.72000122
C    19.86999893   5.17000008  58.02999878
C    18.60000038   4.74000025  57.70000076
C    18.23999977   4.23000002  56.40999603
C    19.27000046   4.11999989  55.48999786
C    20.62999916   4.40000010  55.77999878
C    21.68999863   4.03999996  54.89999771
C    22.98999977   4.39000034  55.19000244
C    23.26000023   5.05000019  56.42000198
C    22.26000023   5.26000023  57.32999802
C    20.88000107   5.03000021  57.04999924
C    16.80999947   4.05999994  56.23000336
C    16.11999893   4.55000019  57.36999893
C    14.75999928   4.84000015  57.32999802
C    24.63000107   5.64000034  56.65999985
H    25.18488121   5.15625715  57.46386337
H    20.10999870   5.75999975  58.90999603
H    19.05999947   3.74000025  54.50000000
H    21.35999870   3.75999975  53.90999603
H    23.72999954   4.19000006  54.43000031
H    22.47999954   5.69999981  58.30999756
H    14.35999966   5.38999987  58.18000031
H    25.20000076   5.51999998  55.72000122
H    24.56000137   6.71999979  56.81000137
S    13.61999989   3.74000025  53.67000198
C    10.90000057   3.86000013  54.36000061
C    12.22000027   4.07999992  54.69999695
C    12.56000042   4.46000004  56.04000092
C    11.56000042   4.69999981  56.95999908
C    10.22999954   4.32000017  56.66999817
C     9.19999981   4.40000010  57.65999603
C     7.90000010   4.26999998  57.25000000
C     7.50999975   3.78999996  55.97000122
C     8.52000046   3.61999989  55.05000305
C     9.85999966   4.00999975  55.31000137
C    14.01000023   4.46999979  56.20999908
C    14.68999958   3.98000002  55.06999969
C    16.06999969   3.84000015  55.06000137
C     6.07999992   3.40999985  55.63000107
H     5.62427664   4.05086136  54.87520599
H    10.65999985   3.32999992  53.43999863
H    11.85999966   4.94999981  57.97000122
H     9.36999989   4.78999996  58.66000366
H     7.07999992   4.28000021  57.95999908
H     8.36999989   3.50000000  53.97999573
H    16.50000000   3.68000007  54.06999969
H     5.40000010   3.40000010  56.49000168
H     6.12999964   2.33999991  55.40000153
S    17.56000137   5.42000008  52.69000244
C    20.29999924   5.25000000  52.09999847
C    19.00000000   4.96000004  51.77000046
C    18.55999947   4.53999996  50.47000122
C    19.63000107   4.39000034  49.61000061
C    20.98999977   4.73000002  49.80999756
C    22.00000000   4.50000000  48.82999802
C    23.31000137   4.75000000  49.18000031
C    23.68999863   5.13000011  50.48999786
C    22.72000122   5.29999971  51.45999908
C    21.35000038   5.09999990  51.16000366
C    17.11000061   4.50000000  50.31000137
C    16.39999962   5.09999990  51.38000107
C    15.06999969   5.46999979  51.31000137
C    25.10000038   5.52999973  50.84999847
H    25.49738693   5.01197815  51.72283173
H    20.43000031   5.78000021  53.04999924
H    19.38999939   3.95000005  48.64999771
H    21.70000076   4.17000008  47.84000015
H    24.00000000   4.57999992  48.36000061
H    22.90999985   5.46999979  52.51999664
H    14.56999969   5.84999990  52.19999695
H    25.72000122   5.32999992  49.97000122
H    25.20999908   6.60000038  51.04000092
S    13.96000004   3.73000002  47.90999985
C    11.21000099   3.98000002  48.41999817
C    12.51000023   4.25000000  48.77999878
C    12.90999985   4.85000038  50.01999664
C    11.90000057   5.13999987  50.90000153
C    10.54999924   4.90000010  50.52999878
C     9.55000019   5.09999990  51.51000214
C     8.23000050   4.84000015  51.22000122
C     7.82000017   4.25000000  50.00000000
C     8.76000023   4.03999996  49.01000214
C    10.13000011   4.32999992  49.27000046
C    14.34999943   4.98000002  50.20999908
C    15.05000019   4.32999992  49.16999817
C    16.44000053   4.18000031  49.12000275
C     6.38000011   3.88999987  49.68000031
H     5.93776131   4.37503576  48.80979156
H    11.05000019   3.48000002  47.47000122
H    12.10999966   5.51999998  51.90000153
H     9.89999962   5.35000038  52.50999832
H     7.53999996   5.09999990  52.02000046
H     8.52999973   3.42999983  48.13999939
H    16.97000122   3.79999995  48.26000214
H     5.77000046   4.17000008  50.54999924
H     6.25000000   2.80999994  49.61000061
