96

S    17.20000076   5.15999985  58.82999802
C    19.86999893   5.32999992  58.04000092
C    18.57999992   4.99000025  57.72999573
C    18.15000153   4.59999990  56.42000198
C    19.15999985   4.41000032  55.48999786
C    20.52000046   4.65999985  55.79999924
C    21.53000069   4.61999989  54.79000092
C    22.85000038   4.88999987  55.06999969
C    23.26000023   5.27999973  56.37000275
C    22.29999924   5.32999992  57.35000229
C    20.92000008   5.09999990  57.11000061
C    16.69999886   4.50000000  56.30000305
C    16.04999924   4.81999969  57.51999664
C    14.67000008   4.79999971  57.65999603
C    24.70999908   5.59999990  56.65999985
H    25.11645126   5.07232666  57.52281952
H    20.13000107   5.59999990  59.06000137
H    18.88000107   4.02999973  54.51000214
H    21.25000000   4.25000000  53.80000305
H    23.61999893   4.74000025  54.31999969
H    22.37999916   5.88000011  58.27999878
H    14.19000053   5.05999994  58.60000229
H    25.36000061   5.26999998  55.83000183
H    24.93999863   6.67000008  56.68000031
S    13.43000031   3.96000004  54.00000000
C    10.78999996   3.56999993  54.75999832
C    12.05999947   3.95000005  55.13000107
C    12.43999958   4.36999989  56.45000076
C    11.46999931   4.55999994  57.41000366
C    10.13000011   4.19999981  57.09000015
C     9.11000061   4.19999981  58.08000183
C     7.79999971   3.91000009  57.77999878
C     7.48000050   3.50000000  56.45999908
C     8.47999954   3.30000019  55.52999878
C     9.81999969   3.68000007  55.79000092
C    13.88000011   4.55000019  56.52999878
C    14.56999969   4.28999996  55.31999969
C    15.95000076   4.21000004  55.15999603
C     6.03999996   3.22000003  56.11999893
H     5.58640909   3.79407597  55.31204224
H    10.52999973   3.28000021  53.75000000
H    11.73999977   4.86999989  58.41999817
H     9.35000038   4.48000002  59.09999847
H     7.04999971   4.00000000  58.55999756
H     8.19000053   2.86000013  54.58000183
H    16.46000099   4.13999987  54.20000076
H     5.38000011   3.40000010  56.98999786
H     6.00000000   2.16999984  55.83000183
S    14.19000053   1.66999996  51.07999802
C    11.49000072   1.13999999  51.70000076
C    12.81999969   1.02999997  52.01000214
C    13.35000038   0.52999997  53.25000000
C    12.38999939   0.06000000  54.13000107
C    11.00000000   0.16000001  53.86000061
C    10.01000023  -0.19000000  54.81999969
C     8.67000008  -0.11000000  54.52999878
C     8.22000027   0.50999999  53.34000015
C     9.11999989   0.86000001  52.35000229
C    10.50000000   0.71000004  52.62000275
C    14.75999928   0.76999998  53.52000427
C    15.36000061   1.38000000  52.38999939
C    16.69000053   1.77999997  52.38999939
C     6.76000023   0.88999999  53.25000000
H     6.27625799   0.44182727  52.38211060
H    11.11999989   1.47000003  50.72999954
H    12.57999992  -0.44000000  55.06999969
H    10.47000027  -0.67000002  55.68000031
H     7.96999979  -0.37000000  55.31999969
H     8.86999989   1.33000004  51.39999771
H    17.17000008   2.13000011  51.47999573
H     6.15999985   0.59999996  54.12000275
H     6.69000053   1.99000001  53.27000046
S    18.02999878   0.25999999  55.84999847
C    20.69000053   0.56000000  55.07999802
C    19.36000061   0.83999997  54.82999802
C    18.93000031   1.44999993  53.61999893
C    19.90999985   1.74000001  52.69000244
C    21.28999901   1.59999990  52.97000122
C    22.29999924   2.04999995  52.08000183
C    23.64000130   2.00999999  52.37999725
C    24.01000023   1.36999989  53.60000229
C    23.09000015   1.00000000  54.54999924
C    21.70000076   1.12000000  54.26000214
C    17.46999931   1.43000007  53.48999786
C    16.87999916   0.75999999  54.59000015
C    15.55999947   0.34000003  54.59000015
C    25.48000145   1.08999991  53.81000137
H    25.81443024   1.54539323  54.74213409
H    20.89999962  -0.13000000  55.89000320
H    19.71999931   2.04999995  51.65999985
H    21.97999954   2.44000006  51.11000061
H    24.44999886   2.16000009  51.66999817
H    23.38999939   0.38000000  55.38999939
H    15.05000019  -0.28000000  55.31999969
H    26.00000000   1.43999994  52.90000153
H    25.61000061   0.00000000  53.75999832
