96

S    17.12000084   5.17000008  58.83999634
C    19.80999947   5.36999989  58.16999817
C    18.53000069   5.05000019  57.77000046
C    18.17000008   4.51999998  56.49000168
C    19.19999886   4.41000032  55.58000183
C    20.51000214   4.81999969  55.90999985
C    21.59000015   4.59000015  55.00000000
C    22.86999893   4.94999981  55.34999847
C    23.26000023   5.29999971  56.66999817
C    22.23999977   5.31000042  57.60000229
C    20.86999893   5.23000002  57.23999786
C    16.72000122   4.35999966  56.37000275
C    16.00000000   4.72000027  57.52999878
C    14.60999966   4.80999994  57.52999878
C    24.70000076   5.64000034  56.95999908
H    25.10593987   5.09874725  57.81460953
H    19.93000031   5.66999960  59.20999908
H    19.04000092   3.91000009  54.61999893
H    21.40999985   4.13999987  54.02999878
H    23.65999985   4.90999985  54.61000061
H    22.47999954   5.52999973  58.63999939
H    13.97999954   5.01999950  58.39000320
H    25.23999977   5.28999996  56.06999969
H    24.89999962   6.71000004  57.06999969
S    13.57999992   4.03999996  53.76999664
C    10.90000057   3.93000007  54.40000153
C    12.15000057   4.36999989  54.77000427
C    12.43999958   4.67000008  56.13999939
C    11.43000031   4.76000023  57.08000183
C    10.11000061   4.42999983  56.68000031
C     9.11000061   4.30999994  57.69000244
C     7.82000017   3.94000006  57.38999939
C     7.50000000   3.73000002  56.02000427
C     8.47999954   3.68000007  55.06000137
C     9.82999992   4.02999973  55.33000183
C    13.88000011   4.59000015  56.36000061
C    14.61999989   4.26000023  55.19000244
C    16.00000000   4.15000010  55.19000244
C     6.06999969   3.38000011  55.68999863
H     5.58218908   3.93850851  54.89111710
H    10.80999947   3.45000005  53.43000031
H    11.64000034   4.88999987  58.13999939
H     9.34000015   4.51000023  58.73000336
H     7.07000017   3.95000005  58.18000031
H     8.23000050   3.48000002  54.02000046
H    16.54999924   3.93000007  54.27000046
H     5.47999954   3.50000000  56.60999680
H     5.95000029   2.31999993  55.41999817
S    14.01999950   1.88999999  51.00999832
C    11.42000008   1.19999993  51.65999985
C    12.76000023   1.07000005  51.95999908
C    13.17000008   0.48999998  53.20000076
C    12.25999928   0.03000000  54.13999939
C    10.88000107   0.14999999  53.87000275
C     9.81999969  -0.20999999  54.75000000
C     8.50000000  -0.06000000  54.40000153
C     8.14999962   0.79000002  53.31999969
C     9.13000011   1.12000000  52.41000366
C    10.47999954   0.69999999  52.60000229
C    14.59000015   0.76999998  53.31999969
C    15.19999981   1.51999998  52.28000259
C    16.56999969   1.72000003  52.18000031
C     6.71999979   1.16999996  53.01000214
H     6.25775719   0.58686304  52.21352005
H    11.02000046   1.63000000  50.75000000
H    12.53999901  -0.48000002  55.06000137
H    10.01999950  -0.83999997  55.61000061
H     7.78999996  -0.50000000  55.08999634
H     8.88000011   1.70000005  51.52999878
H    17.05000114   2.20000005  51.32999802
H     6.14000034   0.99000001  53.92000198
H     6.70000029   2.25000000  52.83000183
S    17.86000061   0.46000001  55.72000122
C    20.53999901   0.83999997  55.00999832
C    19.20999908   1.02999997  54.71000290
C    18.78000069   1.62000000  53.47999954
C    19.72999954   2.10999990  52.60000229
C    21.09999847   1.97000003  52.93000031
C    22.04000092   2.38999987  51.95000076
C    23.36999893   2.34999990  52.30999756
C    23.81999969   1.92000008  53.59000397
C    22.93999863   1.26999998  54.43000031
C    21.54999924   1.34000003  54.13999939
C    17.34000015   1.46000004  53.31999969
C    16.69999886   0.93999994  54.47000122
C    15.38000011   0.50000000  54.45000076
C    25.22999954   2.19000006  54.05000305
H    25.56362724   1.62922072  54.92311096
H    20.76999855   0.44000000  55.98999786
H    19.37999916   2.56000018  51.68000031
H    21.57999992   2.91000009  51.11999893
H    24.03000069   3.02999997  51.79000092
H    23.19000053   0.76999998  55.35999680
H    15.01000023  -0.04000000  55.31000137
H    25.45000076   3.21000004  54.38999939
H    25.95000076   1.95999992  53.25000000
