96

S    17.71999931   5.28999996  59.06999969
C    20.40999985   5.44000053  58.27999878
C    19.13999939   5.00000000  58.04000092
C    18.76000023   4.44999981  56.77999878
C    19.70999908   4.30000019  55.77000046
C    21.00000000   4.84000015  55.97999954
C    22.03000069   4.73000002  55.00000000
C    23.32999992   5.13000011  55.22999573
C    23.68000031   5.51999998  56.55000305
C    22.73999977   5.68000031  57.55000305
C    21.38000107   5.40000010  57.25000000
C    17.31999969   4.28999996  56.66999817
C    16.60000038   4.74000025  57.81000137
C    15.21000004   4.71000004  57.80000305
C    25.12000084   5.88999987  56.79999924
H    25.59027672   5.30571747  57.59091949
H    20.61000061   5.97000027  59.22000122
H    19.55999947   3.58999991  54.95999908
H    21.87000084   4.26000023  54.02999878
H    23.90000153   5.09000015  54.31000137
H    22.95999908   5.98999977  58.56999969
H    14.63000107   4.88000011  58.69999695
H    25.68000031   5.86999989  55.84999847
H    25.13999939   6.96000004  57.02999878
S    14.14000034   3.70000005  54.09000015
C    11.44000053   3.91999984  54.71000290
C    12.74000072   4.11000013  55.10000229
C    13.02999973   4.51000023  56.45000076
C    12.00000000   4.78999996  57.34000397
C    10.70000076   4.39000034  56.97000122
C     9.61000061   4.48000002  57.88999939
C     8.30000019   4.21000004  57.56999969
C     8.02999973   3.74000025  56.25999832
C     9.02000046   3.67000008  55.30000305
C    10.36999893   3.98000002  55.63000107
C    14.46000004   4.42000008  56.65000153
C    15.18000031   3.98999977  55.50000000
C    16.55999947   3.94000006  55.54999924
C     6.60000038   3.32999992  55.97999954
H     6.25274944   3.79772496  55.05872345
H    11.36999989   3.76999998  53.62999725
H    12.25000000   5.10999966  58.34000015
H     9.81000042   4.94000006  58.85000229
H     7.44999981   4.38000011  58.20999908
H     8.86999989   3.31999993  54.29000092
H    17.12000084   3.75999975  54.62999725
H     5.92000008   3.61000013  56.79999924
H     6.61000013   2.23000002  55.97999954
S    18.02000046   5.78999996  52.69000244
C    20.59000015   6.09000015  51.84999847
C    19.36000061   5.53999996  51.56000137
C    18.93000031   5.03999996  50.28999710
C    19.85999870   5.12000036  49.27000046
C    21.18000031   5.56999969  49.55999756
C    22.20999908   5.40999985  48.59000397
C    23.54000092   5.69999981  48.80000305
C    23.85999870   6.32000017  50.02999878
C    22.93999863   6.48000002  51.04000092
C    21.57999992   6.10000038  50.83000183
C    17.47999954   4.92999983  50.25000000
C    16.82999992   5.36999989  51.44000244
C    15.44999981   5.51000023  51.45999908
C    25.26000023   6.76999998  50.40000153
H    25.69535637   6.05629969  51.09942627
H    20.88000107   6.39999962  52.84999847
H    19.64999962   4.88999987  48.22999954
H    21.90999985   4.88999987  47.69000244
H    24.26000214   5.38000011  48.04999924
H    23.19000053   6.97000027  51.97000122
H    15.01000023   5.77000046  52.42000198
H    25.89999962   6.80000019  49.51000214
H    25.19000053   7.81000042  50.77000046
S    14.26000023   4.53000021  47.81999969
C    11.52999973   4.63000011  48.47000122
C    12.84000015   4.82999992  48.82999802
C    13.21000004   5.18000031  50.17000198
C    12.22000027   5.27999973  51.12999725
C    10.86999989   5.03000021  50.79999924
C     9.81000042   5.12000036  51.75000000
C     8.48999977   4.97000027  51.39999771
C     8.17000008   4.75000000  50.04000092
C     9.13000011   4.69000006  49.05000305
C    10.50000000   4.81999969  49.43000031
C    14.65999985   5.19999981  50.34999847
C    15.34999943   4.74000025  49.20000076
C    16.72999954   4.63000011  49.10999680
C     6.80000019   4.21999979  49.69999695
H     6.35171127   4.83194971  48.91727448
H    11.10999966   4.32000017  47.51999664
H    12.43999958   5.53999996  52.16999817
H    10.13000011   5.18000031  52.78999710
H     7.69000006   4.88000011  52.12999725
H     8.89999962   4.36999989  48.02999878
H    17.26000023   4.28999996  48.22000122
H     6.19999981   4.18000031  50.61999893
H     6.96000004   3.21000004  49.29999924
