96

S    17.38999939   4.79999971  58.87000275
C    20.05000114   4.51000023  58.22999954
C    18.75000000   4.40000010  57.80000305
C    18.39999962   4.11999989  56.43000031
C    19.44000053   3.96000004  55.54000092
C    20.79000092   4.13000011  55.93000031
C    21.80999947   4.21000004  54.93999863
C    23.09999847   4.51000023  55.34000015
C    23.40999985   4.79999971  56.69000244
C    22.42000198   4.90000010  57.63999939
C    21.11000061   4.44999981  57.29000092
C    16.95000076   4.07000017  56.30000305
C    16.29999924   4.42000008  57.51999664
C    14.94999981   4.72000027  57.63000107
C    24.80999947   5.27999973  56.97999954
H    25.18609810   4.62714958  57.76767731
H    20.20000076   5.00000000  59.19000244
H    19.22999954   3.68000007  54.50000000
H    21.57999992   4.05000019  53.88999939
H    23.74000168   4.67000008  54.47999954
H    22.62000084   5.23999977  58.64999771
H    14.65999985   4.92000008  58.64999771
H    25.55999947   5.19999981  56.18999863
H    24.77999878   6.34999990  57.22000122
S    13.64999962   3.60000014  54.01000214
C    11.06999969   3.35999990  54.82999802
C    12.31999969   3.81999993  55.15999603
C    12.71999931   4.39000034  56.40999603
C    11.69999981   4.53999996  57.34000397
C    10.36000061   4.26000023  56.98999786
C     9.26999950   4.42000008  57.90000153
C     7.96000004   4.15000010  57.57999802
C     7.68000031   3.55999994  56.31999969
C     8.69000053   3.25999999  55.44000244
C    10.03000069   3.61000013  55.75000000
C    14.17000008   4.44000006  56.50000000
C    14.80000019   4.05999994  55.27999878
C    16.17000008   3.94000006  55.14999771
C     6.25000000   3.21000004  55.94999695
H     5.79193306   3.95435834  55.29868698
H    10.75000000   2.86000013  53.92000198
H    11.82000065   4.69999981  58.40999985
H     9.50000000   4.90000010  58.85000229
H     7.17999983   4.55999994  58.22000122
H     8.55000019   2.75000000  54.47999954
H    16.62999916   3.75000000  54.18000031
H     5.66999960   3.15000010  56.88000107
H     6.34000015   2.21000004  55.50000000
S    13.89000034   1.72000003  51.07999802
C    11.21999931   1.16999996  51.77999878
C    12.56000042   1.12000000  52.08000183
C    13.03999996   0.48999998  53.27000046
C    12.13000107  -0.02000000  54.16999817
C    10.73999977   0.14000000  53.95000076
C     9.68000031  -0.28000000  54.79999924
C     8.34999943   0.01000000  54.59000015
C     7.90000010   0.35999998  53.29000092
C     8.86999989   0.76999998  52.39999771
C    10.26000023   0.67000002  52.70000076
C    14.50000000   0.46000001  53.33000183
C    15.10000038   1.18000007  52.25999832
C    16.46999931   1.36999989  52.29999924
C     6.39999962   0.44000000  53.11000061
H     6.09476662  -0.17756486  52.26528549
H    10.81999969   1.62000000  50.86999893
H    12.41000080  -0.35999998  55.17000198
H     9.98000050  -0.75999999  55.72999954
H     7.69000006  -0.28999999  55.40000153
H     8.56000042   1.28000009  51.49000168
H    16.84999847   1.94999993  51.45999908
H     5.82000017   0.16000001  54.00000000
H     6.07999992   1.48000002  52.97999954
S    17.86000061  -0.38000000  55.59000015
C    20.48999977   0.39000002  55.08999634
C    19.17000008   0.43000001  54.71000290
C    18.68999863   1.14999998  53.56999969
C    19.63999939   1.66999996  52.69000244
C    21.02000046   1.59999990  52.97999954
C    22.00000000   2.15000010  52.11000061
C    23.31999969   1.94999993  52.47000122
C    23.71000099   1.11000001  53.54000092
C    22.79999924   0.68000007  54.47999954
C    21.42999840   0.93999994  54.19000244
C    17.27000046   0.94999999  53.37999725
C    16.65999985   0.16000001  54.38999939
C    15.27999973  -0.01000000  54.38999939
C    25.17000008   0.85000002  53.81000137
H    25.58992386   1.29127622  54.71390533
H    20.72999954  -0.05000000  56.05999756
H    19.36000061   2.06999993  51.72000122
H    21.68000031   2.54999995  51.14999771
H    24.15999985   2.30999994  51.88999939
H    22.93999863  -0.05000000  55.27000046
H    14.80000019  -0.55000001  55.20000076
H    25.78000069   1.29999995  53.01000214
H    25.25000000  -0.24000001  53.83999634
