96

S    17.45000076   4.67999983  58.92000198
C    20.12000084   5.09999990  58.06999969
C    18.82999992   4.69999981  57.80000305
C    18.42000008   4.40000010  56.45999908
C    19.38999939   4.23999977  55.47999954
C    20.75000000   4.51000023  55.75000000
C    21.80999947   4.09999990  54.89999771
C    23.12999916   4.26000023  55.26000214
C    23.44000053   4.94000006  56.45999908
C    22.46000099   5.38000011  57.31999969
C    21.11000061   5.00000000  57.05999756
C    16.98999977   4.15000010  56.36000061
C    16.31999969   4.41000032  57.57999802
C    14.93000031   4.48999977  57.67000198
C    24.87999916   5.23000002  56.84000015
H    25.27990150   4.58015680  57.61838531
H    20.38999939   5.51000023  59.03999710
H    19.14999962   3.63000011  54.61999893
H    21.40999985   3.58000016  54.02999878
H    23.90999985   3.84999990  54.62999725
H    22.72000122   5.84000015  58.27000046
H    14.45000076   4.59999990  58.63999939
H    25.48999977   5.36000013  55.93999863
H    24.86000061   6.24000025  57.28000259
S    13.73999977   3.74000025  53.94000244
C    11.00999928   3.68000007  54.65999985
C    12.31999969   4.00999975  54.95999908
C    12.72999954   4.40000010  56.26999664
C    11.77999973   4.55000019  57.25999832
C    10.40999985   4.28999996  56.97999954
C     9.35999966   4.39000034  57.94000244
C     8.03999996   4.09999990  57.69000244
C     7.68000031   3.73000002  56.37000275
C     8.65999985   3.56999993  55.40999985
C    10.03000069   3.81999993  55.68000031
C    14.15999985   4.25000000  56.52999878
C    14.82999992   3.93000007  55.33000183
C    16.21999931   3.78999996  55.25000000
C     6.25999975   3.32999992  56.05999756
H     5.75008869   4.05237436  55.42260742
H    10.65000057   3.25999999  53.73000336
H    12.07999992   4.88999987  58.25000000
H     9.68999958   4.61999989  58.95000076
H     7.34000015   4.23000002  58.50999832
H     8.40999985   3.05999994  54.47999954
H    16.55999947   3.56999993  54.25000000
H     5.71000004   3.17999983  56.98999786
H     6.34999990   2.42000008  55.45000076
S    14.07999992   1.57000005  51.13999939
C    11.36999989   1.13999999  51.88999939
C    12.71999931   0.90999997  52.06999969
C    13.25000000   0.34999999  53.27999878
C    12.35999966  -0.12000000  54.22000122
C    10.95999908  -0.11000000  53.97999573
C     9.96000004  -0.50999999  54.91000366
C     8.61999989  -0.44000000  54.59999847
C     8.15999985   0.16000001  53.40000153
C     9.06999969   0.73000002  52.55000305
C    10.46000004   0.56999999  52.81000137
C    14.68999958   0.50000000  53.43999863
C    15.31000042   1.10000002  52.31999969
C    16.65999985   1.44999993  52.28000259
C     6.65999985   0.29999998  53.18999863
H     6.29538679   0.01402870  52.20339966
H    11.03999996   1.79000008  51.09000397
H    12.75000000  -0.50999999  55.15999603
H    10.22999954  -1.11000001  55.77000046
H     7.90000010  -0.92000002  55.25000000
H     8.69000053   1.38999999  51.77000046
H    17.05999947   1.87000012  51.36000061
H     6.09000015  -0.25999999  53.94000244
H     6.57999992   1.36000013  53.46000290
S    18.02000046  -0.03000000  55.70000076
C    20.69000053   0.14000000  54.82999802
C    19.34999847   0.39999998  54.61000061
C    18.89000130   1.01999998  53.40999985
C    19.80999947   1.50999999  52.50000000
C    21.19999886   1.35000002  52.71999741
C    22.14999962   1.87000012  51.79000092
C    23.48999977   1.75999999  52.09000015
C    23.94000053   1.23000002  53.33000183
C    23.02000046   0.74000001  54.22999954
C    21.63000107   0.67000002  53.90999603
C    17.43999863   1.11000001  53.39000320
C    16.80999947   0.62000000  54.55999756
C    15.47000027   0.27000001  54.58000183
C    25.36000061   0.79000002  53.60000229
H    25.79419518   1.30961156  54.45415497
H    21.09999847  -0.22000000  55.76000214
H    19.50000000   2.03999996  51.60999680
H    21.86000061   2.42000008  50.90000153
H    24.25000000   1.99000001  51.33999634
H    23.26999855   0.20999999  55.13999939
H    15.06999969  -0.27000001  55.44000244
H    25.90999985   1.13000000  52.70999908
H    25.38000107  -0.29999998  53.73000336
