96

S    16.69000053   4.76999998  58.74000168
C    19.43000031   4.67000008  58.20000076
C    18.13999939   4.40000010  57.78999710
C    17.80999947   3.88000011  56.50000000
C    18.84000015   3.72000003  55.59000015
C    20.15999985   4.11000013  55.93999863
C    21.18999863   3.98000002  54.95999908
C    22.46000099   4.46000004  55.19000244
C    22.78000069   5.03000021  56.45000076
C    21.80000114   5.09000015  57.42000198
C    20.46999931   4.61999989  57.23999786
C    16.38000107   3.93000007  56.20999908
C    15.67000008   4.44000006  57.31999969
C    14.28999996   4.55000019  57.32999802
C    24.14999962   5.59999990  56.75000000
H    24.71862411   4.93186474  57.39680862
H    19.60000038   5.19000006  59.13999939
H    18.68000031   3.32999992  54.59000015
H    20.89999962   3.81000018  53.92000198
H    23.12999916   4.67000008  54.36000061
H    22.06000137   5.50000000  58.39000320
H    13.68999958   4.88999987  58.16999817
H    24.54000092   5.75999975  55.73999786
H    24.14999962   6.60000038  57.19999695
S    13.20000076   3.35000014  53.67000198
C    10.50000000   3.12000012  54.38000107
C    11.75000000   3.61000013  54.66999817
C    12.13999939   4.11000013  55.94999695
C    11.10999966   4.21999979  56.86999893
C     9.77999973   3.91999984  56.51000214
C     8.73999977   4.00000000  57.49000168
C     7.42000008   3.75000000  57.19999695
C     7.07999992   3.19000006  55.93999863
C     8.05000019   2.98000002  54.99000168
C     9.39999962   3.37000012  55.22999573
C    13.57999992   4.23000002  56.16000366
C    14.27999973   3.86000013  54.98000336
C    15.65000057   3.63000011  55.05000305
C     5.65999985   2.84000015  55.56000137
H     5.22514629   3.43168640  54.75445175
H    10.32999992   2.53999996  53.47999954
H    11.32999992   4.55000019  57.88000107
H     8.90999985   4.23000002  58.53000259
H     6.65999985   3.91999984  57.95000076
H     7.92999983   2.43000007  54.06000137
H    16.04999924   3.28999996  54.10999680
H     5.05000019   2.92000008  56.46999741
H     5.69999981   1.77999997  55.27000046
S    17.64000130   5.05999994  52.64999771
C    20.29999924   5.46999979  51.90999985
C    19.04000092   5.03000021  51.56000137
C    18.72999954   4.51999998  50.26000214
C    19.73999977   4.42000008  49.31999969
C    21.09000015   4.59999990  49.71000290
C    22.13000107   4.51000023  48.75000000
C    23.40999985   4.88999987  49.08000183
C    23.65999985   5.58000040  50.28999710
C    22.62000084   5.80999947  51.14999771
C    21.35000038   5.17000008  51.00999832
C    17.28999901   4.39000034  50.12000275
C    16.55999947   4.72000027  51.29000092
C    15.18000031   4.88999987  51.35000229
C    25.02000046   6.17000008  50.61000061
H    25.59585381   5.53727055  51.28538513
H    20.55000114   6.05999994  52.77999878
H    19.47999954   4.32999992  48.27000046
H    21.88999939   4.15000010  47.75000000
H    24.18999863   4.65000010  48.36000061
H    22.73999977   6.63000011  51.84999847
H    14.70999908   5.23999977  52.27000427
H    25.72999954   6.28000021  49.78000259
H    24.82000160   7.16000032  51.02000427
S    13.94999981   4.00000000  47.77000046
C    11.30000019   3.89999986  48.43000031
C    12.55000019   4.33999968  48.81999969
C    12.92000008   4.77999973  50.13000107
C    11.87999916   4.92999983  51.03000259
C    10.57999992   4.50000000  50.70000076
C     9.59000015   4.61000013  51.72000122
C     8.34000015   4.11000013  51.44000244
C     7.96999979   3.61000013  50.15999603
C     8.92000008   3.56999993  49.16999817
C    10.26999950   3.95000005  49.40000153
C    14.37000084   4.73000002  50.21999741
C    15.10000038   4.30000019  49.09000015
C    16.47999954   4.15000010  49.00000000
C     6.54999971   3.14000010  49.93000031
H     6.06663895   3.78685093  49.19784927
H    11.09000015   3.42000008  47.48000336
H    12.11999989   5.26999998  52.04000092
H     9.88000011   5.14999962  52.62000275
H     7.59999990   4.11000013  52.22999954
H     8.82999992   3.08999991  48.20000076
H    17.01000023   3.89999986  48.09000015
H     6.05000019   3.12999988  50.90999985
H     6.70000029   2.11999989  49.58000183
