96

S    17.45000076   4.78999996  58.94000244
C    20.13999939   5.00999975  58.20000076
C    18.84000015   4.71000004  57.84000015
C    18.53999901   4.15000010  56.56000137
C    19.52000046   3.98999977  55.59000015
C    20.82999992   4.33999968  55.97999954
C    21.90999985   4.25000000  55.05000305
C    23.19000053   4.65000010  55.35999680
C    23.52999878   5.10999966  56.65000153
C    22.55000114   5.10999966  57.62000275
C    21.19999886   4.81999969  57.28000259
C    17.10000038   3.98000002  56.43000031
C    16.38000107   4.32999992  57.60000229
C    15.00000000   4.39000034  57.71999741
C    24.94999886   5.55999994  56.95000076
H    25.31288338   5.09749985  57.86788177
H    20.38000107   5.47999954  59.15000153
H    19.40000153   3.75000000  54.54000092
H    21.83000183   3.73000002  54.09999847
H    23.92000008   4.55999994  54.55999756
H    22.75000000   5.47999954  58.61999893
H    14.55000019   4.55999994  58.68999863
H    25.62000084   5.23000002  56.13999939
H    24.77999878   6.63999987  56.97000122
S    13.83999920   3.44000006  54.02000046
C    11.13000011   3.25999999  54.71000290
C    12.42000008   3.58000016  55.06999969
C    12.79999924   4.00999975  56.38000107
C    11.77000046   4.19999981  57.28000259
C    10.40999985   3.91999984  56.98999786
C     9.30999947   4.02999973  57.88000107
C     8.02999973   3.70000005  57.50999832
C     7.75000000   3.10999990  56.25000000
C     8.78000069   3.05999994  55.33000183
C    10.11000061   3.40000010  55.68999863
C    14.22999954   4.21000004  56.56000137
C    14.92000008   3.88999987  55.35999680
C    16.29999924   3.71000004  55.31000137
C     6.35999966   2.61000013  55.91999817
H     5.91164494   3.26474023  55.17274094
H    10.77999973   2.79000020  53.79000092
H    11.97999954   4.55000019  58.29000092
H     9.46000004   4.25000000  58.94000244
H     7.26000023   3.94000006  58.25000000
H     8.46000004   2.76999998  54.33000183
H    16.72999954   3.19999981  54.45999908
H     5.84999990   2.66999984  56.88999939
H     6.48999977   1.56000006  55.63999939
S    17.56000137   5.05999994  52.93000031
C    20.28000069   5.21000004  52.25000000
C    19.02000046   4.72000027  51.98999786
C    18.68999863   4.23000002  50.68000031
C    19.68000031   4.17000008  49.72000122
C    21.01000023   4.59000015  49.95999908
C    22.01000023   4.59999990  48.95000076
C    23.31000137   4.90999985  49.29999924
C    23.61000061   5.44000053  50.58000183
C    22.62000084   5.59000015  51.52000046
C    21.31000137   5.09000015  51.26999664
C    17.26000023   4.28999996  50.41999817
C    16.55999947   4.90999985  51.47999573
C    15.18000031   5.09999990  51.47999573
C    24.99000168   5.98000002  50.87999725
H    25.66707230   5.33143616  51.43590927
H    20.52999878   5.72000027  53.16999817
H    19.47000122   3.75000000  48.74000168
H    21.73999977   4.34999990  47.93000031
H    24.05999947   4.90000010  48.52000427
H    22.86999893   6.10000038  52.44999695
H    14.75999928   5.45000029  52.42000198
H    25.43000031   6.38999987  49.95999908
H    24.77000046   6.97000027  51.31000137
S    14.07999992   3.74000025  47.93000031
C    11.46000004   3.31999993  48.82999802
C    12.72999954   3.79999995  49.06999969
C    13.01000023   4.51999998  50.27999878
C    12.02999973   4.75000000  51.22000122
C    10.70000076   4.42999983  50.86000061
C     9.65999985   4.67000008  51.79999924
C     8.38999939   4.23000002  51.51000214
C     8.06999969   3.51000023  50.31999969
C     9.04999924   3.24000001  49.40000153
C    10.38000011   3.65999985  49.68999863
C    14.44000053   4.77999973  50.34000015
C    15.15999985   4.26000023  49.22999954
C    16.52000046   3.97000027  49.27000046
C     6.67999983   3.00999999  50.00999832
H     6.30903435   3.57358217  49.15392685
H    11.26999950   2.76999998  47.90999985
H    12.25999928   5.23999977  52.15999985
H     9.96000004   5.05999994  52.77000046
H     7.71000004   4.30999994  52.35000229
H     8.89000034   2.86999989  48.37999725
H    17.01000023   3.60000014  48.37999725
H     5.95000029   3.21000004  50.79999924
H     6.70000029   1.94000006  49.75000000
