96

S    17.21999931   4.67999983  58.83999634
C    19.95000076   4.73000002  58.29999924
C    18.68000031   4.42000008  57.87000275
C    18.34000015   4.00999975  56.53999710
C    19.31999969   3.98000002  55.56000137
C    20.63999939   4.30999994  55.94999695
C    21.73000145   4.11000013  55.06000137
C    23.01000214   4.36999989  55.47999954
C    23.29000092   4.94999981  56.75000000
C    22.27999878   5.07000017  57.67000198
C    20.95000076   4.71000004  57.29999924
C    16.90999985   3.76999998  56.37000275
C    16.17000008   4.15999985  57.50999832
C    14.78000069   4.25000000  57.48000336
C    24.65999985   5.44000053  57.15000153
H    25.23429298   4.68136597  57.68175507
H    20.15000153   5.17000008  59.27000046
H    19.11000061   3.56999993  54.58000183
H    21.53000069   3.58999991  54.13000107
H    23.80000114   4.07999992  54.79000092
H    22.52000046   5.36000013  58.68999863
H    14.22000027   4.48000002  58.37999725
H    25.20999908   5.73000002  56.24000168
H    24.56000137   6.39999962  57.67000198
S    13.71999931   3.08999991  53.85000229
C    11.02000046   3.19999981  54.61999893
C    12.34000015   3.47000003  54.91000366
C    12.68000031   4.09999990  56.13999939
C    11.78999996   4.26000023  57.18999863
C    10.43000031   3.98000002  56.90000153
C     9.42000008   4.13999987  57.88999939
C     8.09000015   3.84999990  57.68000031
C     7.76999998   3.40999985  56.37000275
C     8.65999985   3.32999992  55.33000183
C    10.03999901   3.58000016  55.56999969
C    14.13000011   4.03999996  56.25000000
C    14.85999966   3.58000016  55.12000275
C    16.22999954   3.38000011  55.20999908
C     6.32999992   3.07000017  56.04000092
H     5.92330456   3.64080048  55.20520401
H    10.72000027   2.70000005  53.69999695
H    12.20000076   4.42999983  58.18000031
H     9.73999977   4.55999994  58.83999634
H     7.42000008   3.91999984  58.53000259
H     8.40999985   2.86999989  54.36999893
H    16.69000053   3.00999999  54.29999924
H     5.66999960   3.30999994  56.88999939
H     6.32000017   1.98000002  55.93999863
S    17.73999977   5.12000036  52.83000183
C    20.38000107   5.38999987  52.04999924
C    19.10000038   5.03999996  51.70000076
C    18.72999954   4.67999983  50.35999680
C    19.67000008   4.65999985  49.34999847
C    21.00000000   4.98000002  49.66999817
C    21.94999886   4.90000010  48.61999893
C    23.28000069   5.07999992  48.94000244
C    23.65999985   5.42999983  50.26000214
C    22.75000000   5.46999979  51.30000305
C    21.37000084   5.26000023  51.04000092
C    17.28999901   4.51999998  50.20999908
C    16.65999985   4.78999996  51.45999908
C    15.29000092   5.03000021  51.42000198
C    25.00999832   5.96000004  50.68000031
H    25.55041122   5.32714939  51.38395691
H    20.62999916   5.64000034  53.08000183
H    19.31999969   4.32000017  48.37999725
H    21.63999939   4.51999998  47.64999771
H    23.95000076   5.09000015  48.09000015
H    22.98999977   5.77000046  52.31999969
H    14.89999962   5.42000008  52.35000229
H    25.65000153   6.23000050  49.82999802
H    24.87999916   6.89000034  51.24000168
S    14.04999924   4.02999973  47.76000214
C    11.35000038   4.01999998  48.43999863
C    12.64999962   4.28000021  48.81999969
C    13.09999943   4.51999998  50.15999603
C    12.11999989   4.48999977  51.13999939
C    10.75000000   4.33999968  50.81999969
C     9.72000027   4.42999983  51.79999924
C     8.38000011   4.30999994  51.51000214
C     8.01999950   3.98999977  50.17000198
C     8.97999954   3.88000011  49.19000244
C    10.36000061   4.05999994  49.45999908
C    14.53999996   4.65999985  50.30000305
C    15.19000053   4.28999996  49.09999847
C    16.57999992   4.21000004  49.03999710
C     6.58999968   3.58999991  49.87999725
H     6.09797812   4.17472124  49.10274887
H    11.07999992   3.63000011  47.45999908
H    12.31999969   4.63999987  52.18999863
H     9.90999985   4.59000015  52.85999680
H     7.57000017   4.41000032  52.22000122
H     8.69000053   3.68000007  48.15999985
H    17.04000092   4.03999996  48.06999969
H     6.01000023   3.61000013  50.80999756
H     6.81999969   2.56000018  49.61000061
