96

S    17.76000023   5.07000017  58.81000137
C    20.45999908   5.13999987  58.04000092
C    19.18000031   4.67999983  57.81999969
C    18.79999924   4.17000008  56.52999878
C    19.71999931   4.05000019  55.51000214
C    21.04999924   4.48000002  55.73999786
C    22.10000038   4.44000006  54.78000259
C    23.39999962   4.78999996  55.06000137
C    23.77000046   5.31000042  56.32999802
C    22.77000046   5.44000053  57.27000427
C    21.42999840   5.03000021  57.01000214
C    17.35000038   4.13000011  56.39999771
C    16.62999916   4.63999987  57.50999832
C    15.24000072   4.76000023  57.56000137
C    25.19000053   5.32999992  56.84000015
H    25.41086388   4.37529755  57.31734848
H    20.71000099   5.55000019  59.01000214
H    19.38999939   3.81999993  54.50000000
H    21.77000046   4.28000021  53.75000000
H    24.15999985   4.67000008  54.29999924
H    23.05999947   5.53999996  58.30999756
H    14.77000046   5.00000000  58.50999832
H    25.82999992   5.69999981  56.02000427
H    25.23999977   6.14000034  57.56999969
S    14.06000042   3.75000000  53.97999573
C    11.32999992   3.70000005  54.58000183
C    12.61000061   4.00000000  54.98000336
C    13.02000046   4.36999989  56.30000305
C    11.97999954   4.50000000  57.19999695
C    10.62999916   4.32999992  56.84000015
C     9.52999973   4.38000011  57.74000168
C     8.27000046   3.91999984  57.41000366
C     7.95000029   3.58999991  56.06999969
C     8.94999981   3.56999993  55.13000107
C    10.27999973   3.86999989  55.52000046
C    14.47000027   4.40000010  56.45000076
C    15.21000004   3.96000004  55.31999969
C    16.59000015   3.78999996  55.27999878
C     6.54999971   3.08999991  55.77999878
H     6.12443542   3.66451216  54.95724106
H    11.21999931   3.22000003  53.61000061
H    12.20000076   4.71000004  58.25000000
H     9.84000015   4.61999989  58.75999832
H     7.51999950   3.81000018  58.18999863
H     8.67999935   3.33999991  54.09999847
H    16.98999977   3.33999991  54.36999893
H     5.92000008   3.07000017  56.66999817
H     6.54999971   2.02999997  55.48999786
S    17.60000038   5.38999987  52.55000305
C    20.30999947   5.65000010  51.90000153
C    19.04000092   5.26000023  51.52000046
C    18.75000000   4.82999992  50.19000244
C    19.76000023   4.75000000  49.25000000
C    21.07000160   5.17000008  49.56999969
C    22.06000137   5.00999975  48.55999756
C    23.36999893   5.14999962  48.97999573
C    23.64000130   5.77000046  50.22999573
C    22.67000008   6.00000000  51.18000031
C    21.31000137   5.65999985  50.90000153
C    17.30999947   4.69000006  50.01999664
C    16.54000092   5.01999950  51.17000198
C    15.15999985   5.09999990  51.25000000
C    25.06000137   6.15999985  50.56000137
H    25.52281761   5.56901979  51.35034561
H    20.48000145   5.78000021  52.97000122
H    19.54000092   4.32999992  48.27000046
H    21.71999931   4.61000013  47.62000275
H    24.20000076   4.88000011  48.34000015
H    22.86999893   6.23000050  52.22000122
H    14.65999985   5.46999979  52.15000153
H    25.65000153   6.17000008  49.64000320
H    25.00000000   7.20000029  50.91999817
S    14.14000034   4.15000010  47.56999969
C    11.40999985   4.05000019  48.20000076
C    12.69999981   4.35999966  48.57999802
C    13.02000046   4.59999990  49.94999695
C    11.96000004   4.67999983  50.84000015
C    10.62000084   4.35999966  50.47999954
C     9.50000000   4.48000002  51.33999634
C     8.19999981   4.38000011  50.90000153
C     7.96999979   3.88000011  49.59000015
C     8.98999977   3.86000013  48.67000198
C    10.32999992   4.02999973  49.10999680
C    14.46000004   4.76000023  50.08999634
C    15.21999931   4.40000010  48.95000076
C    16.61000061   4.33999968  48.86000061
C     6.57999992   3.50000000  49.12000275
H     6.10386896   4.21775055  48.45199585
H    11.13000011   3.93000007  47.15000153
H    12.15000057   4.74000025  51.90999985
H     9.64999962   4.72000027  52.38999939
H     7.36999989   4.59000015  51.56999969
H     8.84000015   3.73000002  47.60000229
H    17.06999969   3.96000004  47.95000076
H     5.95000029   3.40999985  50.00999832
H     6.71999979   2.51999998  48.64999771
