96

S    16.97000122   4.94999981  58.83999634
C    19.64999962   5.07000017  58.11999893
C    18.36000061   4.73000002  57.76000214
C    17.97999954   4.11000013  56.52999878
C    19.03000069   3.81999993  55.68000031
C    20.36999893   4.09999990  56.02000427
C    21.47999954   3.81000018  55.17000198
C    22.76000023   4.21999979  55.44000244
C    23.06999969   4.88999987  56.65999985
C    22.06000137   5.14999962  57.55000305
C    20.72000122   4.78999996  57.22999954
C    16.54000092   4.11999989  56.37000275
C    15.85999966   4.65000010  57.49000168
C    14.47000027   4.75000000  57.58999634
C    24.37999916   5.59000015  56.90000153
H    24.93973351   4.98775434  57.61561203
H    19.96000099   5.52999973  59.05000305
H    18.78999901   3.45999980  54.68000031
H    21.32999802   3.48000002  54.13999939
H    23.50000000   4.19000006  54.64000320
H    22.32000160   5.80999947  58.36999893
H    13.97999954   5.13999987  58.47999954
H    24.89000130   5.75999975  55.93999863
H    24.26000214   6.63000011  57.23999786
S    13.35000038   3.24000001  54.06999969
C    10.67000008   3.25000000  54.73999786
C    11.95000076   3.61000013  55.10000229
C    12.28000069   4.21000004  56.35000229
C    11.26999950   4.50000000  57.25000000
C     9.94999981   4.09000015  56.93999863
C     8.89000034   4.23000002  57.88000107
C     7.57999992   3.89999986  57.60000229
C     7.26000023   3.45000005  56.30000305
C     8.26000023   3.17999983  55.38999939
C     9.61999989   3.47000003  55.68000031
C    13.71999931   4.23000002  56.52999878
C    14.40999985   3.68000007  55.41999817
C    15.78999996   3.65000010  55.27000046
C     5.88999987   2.94999981  55.90000153
H     5.44081259   3.44196725  55.03727341
H    10.51000023   2.66000009  53.83999634
H    11.49000072   4.80999994  58.27000046
H     9.18000031   4.63000011  58.85000229
H     6.86999989   3.68999982  58.39000320
H     7.94000053   2.76999998  54.43999863
H    16.17000008   3.31999993  54.31000137
H     5.25000000   2.82999992  56.77999878
H     5.98000002   1.92000008  55.52999878
S    17.32999992   5.32999992  52.88999939
C    20.09000015   5.29999971  52.23999786
C    18.77000046   5.14999962  51.86999893
C    18.48999977   4.74000025  50.52999878
C    19.51000023   4.63999987  49.59999847
C    20.86000061   4.86000013  49.99000168
C    21.86000061   4.73000002  48.99000168
C    23.15000153   4.98000002  49.36999893
C    23.51000023   5.38000011  50.68000031
C    22.55000114   5.44000053  51.65999985
C    21.18999863   5.18000031  51.36000061
C    17.05999947   4.59999990  50.30000305
C    16.34000015   4.88999987  51.49000168
C    14.96000099   5.09999990  51.49000168
C    24.90999985   5.84000015  51.04999924
H    25.33564758   5.28666115  51.88710022
H    20.23999977   5.61999989  53.27000046
H    19.19999886   4.28999996  48.61999893
H    21.61999893   4.46999979  47.95999908
H    23.95000076   4.90999985  48.63999939
H    22.78000069   5.88999987  52.63000107
H    14.52000046   5.46000004  52.41000366
H    25.68000031   5.79999971  50.27000046
H    24.93999863   6.89000034  51.38000107
S    13.88000011   3.91999984  47.88999939
C    11.19999981   3.52999973  48.62999725
C    12.48000050   3.91000009  48.96999741
C    12.76999950   4.42999983  50.27999878
C    11.72000027   4.61999989  51.16000366
C    10.39000034   4.19000006  50.91999817
C     9.35000038   4.42999983  51.86000061
C     8.05999947   4.21000004  51.45999908
C     7.79999971   3.58999991  50.20999908
C     8.82000065   3.30000019  49.34000015
C    10.17000008   3.68999982  49.59000015
C    14.19999981   4.61000013  50.40999985
C    14.94999981   4.28999996  49.25000000
C    16.34000015   4.35999966  49.13000107
C     6.44000006   3.00999999  49.86999893
H     5.94371843   3.64098644  49.13266373
H    11.07999992   3.10999990  47.63000107
H    11.95000076   5.17000008  52.06999969
H     9.57999992   4.81999969  52.84999847
H     7.36999989   4.07000017  52.29000092
H     8.65999985   2.69000006  48.44999695
H    16.90999985   4.15999985  48.23999786
H     5.86999989   2.99000001  50.80999756
H     6.51999998   2.00000000  49.45999908
