96

S    17.06999969   4.84000015  58.76999664
C    19.77000046   4.73000002  58.15999985
C    18.47999954   4.39000034  57.78999710
C    18.15999985   3.95000005  56.46999741
C    19.18000031   3.86000013  55.54000092
C    20.50000000   4.21999979  55.89000320
C    21.54000092   4.25000000  54.92000198
C    22.84000015   4.42999983  55.33000183
C    23.16999817   4.84000015  56.65000153
C    22.15999985   5.05999994  57.55000305
C    20.82999992   4.65999985  57.22000122
C    16.70999908   3.98000002  56.29000092
C    15.98999977   4.38000011  57.43999863
C    14.65000057   4.73000002  57.54000092
C    24.60000038   5.22000027  56.98999786
H    25.04152107   4.70726728  57.84455490
H    19.96000099   5.29999971  59.06000137
H    18.93000031   3.58999991  54.52000046
H    21.42999840   4.00999975  53.86000061
H    23.59999847   4.13999987  54.61000061
H    22.37999916   5.32999992  58.57999802
H    14.11000061   5.03999996  58.43000031
H    25.30999947   5.19000006  56.14999771
H    24.59000015   6.25999975  57.32999802
S    13.48999977   3.82999992  53.83999634
C    10.76000023   3.75000000  54.54000092
C    12.06999969   3.96000004  54.89999771
C    12.43999958   4.36999989  56.22000122
C    11.44999981   4.63999987  57.14000320
C    10.08999920   4.42999983  56.83000183
C     9.10000038   4.40000010  57.84999847
C     7.78999996   4.07999992  57.56999969
C     7.40000010   3.71000004  56.25999832
C     8.39999962   3.55999994  55.31999969
C     9.73999977   3.98000002  55.50000000
C    13.89000034   4.44000006  56.39999771
C    14.56999969   4.05000019  55.21999741
C    15.93999958   3.84000015  55.13000107
C     6.00000000   3.31999993  55.84000015
H     5.67931604   3.88297892  54.96346283
H    10.53999996   3.28000021  53.59000397
H    11.82000065   4.76999998  58.15999985
H     9.48999977   4.48999977  58.86000061
H     7.00999975   3.96000004  58.31999969
H     8.15999985   3.07000017  54.38000107
H    16.28000069   3.48000002  54.15999985
H     5.32999992   3.51000023  56.70000076
H     5.88000011   2.25999999  55.58000183
S    14.34000015   1.66999996  50.79999924
C    11.65999985   1.15999997  51.44000244
C    12.98999977   1.00000000  51.73999786
C    13.35000038   0.41999999  53.00000000
C    12.42000008  -0.17000002  53.82999802
C    11.05999947  -0.08000001  53.47000122
C    10.03000069  -0.59999996  54.31000137
C     8.69999981  -0.32999998  54.10999680
C     8.32999992   0.45000002  52.98999786
C     9.26999950   0.96000004  52.12999725
C    10.65000057   0.65999997  52.30999756
C    14.78000069   0.63000000  53.20000076
C    15.43000031   1.30999994  52.15000153
C    16.81999969   1.43999994  52.11999893
C     6.86999989   0.81000000  52.81000137
H     6.44184446   0.33902910  51.92514420
H    11.31999969   1.82999992  50.65000153
H    12.69000053  -0.55000001  54.81999969
H    10.39999962  -1.15999997  55.17000198
H     7.94000053  -0.76999998  54.75999832
H     8.98999977   1.61000001  51.31000137
H    17.39999962   1.81999993  51.29000092
H     6.30000019   0.46999997  53.68000031
H     6.63999987   1.87999988  52.76000214
S    18.02999878  -0.14999999  55.61000061
C    20.72000122   0.38000000  55.00000000
C    19.38999939   0.45000002  54.65000153
C    18.95000076   1.00999999  53.40999985
C    19.92000008   1.42000008  52.50999832
C    21.28999901   1.43999994  52.83000183
C    22.20000076   2.02999997  51.90999985
C    23.52999878   1.97000003  52.23999786
C    23.97000122   1.38000000  53.44999695
C    23.09999847   0.79000002  54.34000015
C    21.70000076   0.87000000  54.09000015
C    17.50000000   0.99000001  53.25000000
C    16.87999916   0.38000000  54.36999893
C    15.50000000   0.23000000  54.34000015
C    25.45999908   1.31999993  53.68000031
H    25.66588974   1.48329186  54.73785019
H    21.04999924  -0.22000000  55.84000015
H    19.56999969   1.80000007  51.55000305
H    21.87000084   2.49000001  50.97999954
H    24.20999908   2.25000000  51.44000244
H    23.40999985   0.19999999  55.20000076
H    15.06999969  -0.38000000  55.12000275
H    25.88000107   2.10999990  53.04999924
H    25.85000038   0.34999999  53.34000015
