96

S    12.44999981  16.97999954  44.31999969
C     9.75000000  17.28999901  45.12000275
C    11.03999996  16.95000076  45.40000153
C    11.44000053  16.56999969  46.75000000
C    10.40999985  16.47999954  47.76000214
C     9.11000061  16.82999992  47.43999863
C     8.10000038  16.79999924  48.44999695
C     6.80999994  17.26000023  48.20999908
C     6.46000004  17.69000053  46.86000061
C     7.42000008  17.68000031  45.87999725
C     8.75000000  17.26000023  46.11999893
C    12.81999969  16.53000069  46.83000183
C    13.50000000  16.62999916  45.61000061
C    14.85999966  16.60000038  45.56999969
C     5.05000019  17.88999939  46.39999771
H     4.75547266  17.36788368  45.48964310
H     9.55000019  17.79999924  44.18000031
H    10.57000065  16.23999977  48.81000137
H     8.34000015  16.42000008  49.43999863
H     6.06999969  17.29999924  49.00000000
H     7.30999994  18.09999847  44.87999725
H    15.36999893  16.63999939  44.61000061
H     4.44000006  17.54999924  47.23999786
H     4.88000011  18.96999931  46.39999771
S    16.07999992  15.67000008  49.15000153
C    18.68000031  14.98999977  48.43000031
C    17.48999977  15.48999977  48.06999969
C    17.10000038  15.92000008  46.77000046
C    18.12000084  15.90999985  45.77999878
C    19.38999939  15.52000046  46.12999725
C    20.36999893  15.57999992  45.17000198
C    21.68999863  15.26999950  45.54999924
C    22.00000000  14.73999977  46.84999847
C    21.01000023  14.59000015  47.76000214
C    19.70000076  14.98999977  47.44999695
C    15.65999985  16.28000069  46.68000031
C    14.98000050  16.20000076  47.88000107
C    13.63999939  16.32999992  47.91999817
C    23.40999985  14.29999924  47.22000122
H    23.75042915  14.98085976  48.00015259
H    18.73999977  14.47000027  49.38999939
H    17.84000015  16.27000046  44.79000092
H    20.29000092  16.18000031  44.27000046
H    22.53000069  15.57000065  44.92000198
H    21.31999969  14.06000042  48.66000366
H    13.17999935  16.28999901  48.89999771
H    24.11000061  14.19000053  46.38000107
H    23.48999977  13.27000046  47.58999634
S    16.05999947  13.02999973  52.06999969
C    18.68000031  12.30000019  51.42000198
C    17.38000107  12.38000011  51.04999924
C    16.87999916  11.95000076  49.68999863
C    17.81999969  11.57999992  48.76999664
C    19.18000031  11.50000000  49.06999969
C    20.13999939  10.81999969  48.27000046
C    21.45999908  10.65000057  48.54999924
C    21.88999939  11.26000023  49.79000092
C    20.97999954  11.77999973  50.65999985
C    19.57999992  11.89000034  50.44000244
C    15.44999981  12.25000000  49.59999847
C    14.96000099  12.90999985  50.76000214
C    13.61999989  13.38999939  50.77000046
C    23.29999924  10.93999958  50.19000244
H    23.63524818  11.38699627  51.12590027
H    19.00000000  12.43000031  52.44999695
H    17.54999924  11.09000015  47.84000015
H    19.78000069  10.54999924  47.28000259
H    22.03000069   9.98999977  47.90000153
H    21.28000069  12.10999966  51.65000153
H    13.10999966  13.81000042  51.63999939
H    23.26999855   9.85000038  50.30000305
H    24.00000000  11.18999958  49.38000107
S    12.09000015  12.15999985  47.41000366
C     9.44999981  12.74000072  48.20000076
C    10.81999969  12.86000061  48.37999725
C    11.36000061  13.38999939  49.58000183
C    10.50000000  13.86999989  50.59000015
C     9.11999989  13.78999901  50.40999985
C     8.19999981  14.18000031  51.45999908
C     6.88000011  14.07999992  51.20999908
C     6.30999994  13.76999950  49.95999908
C     7.13999987  13.23999977  49.00000000
C     8.59000015  13.17999935  49.19000244
C    12.81000042  13.20000076  49.68999863
C    13.35000038  12.53999901  48.57999802
C    14.61999989  12.02000046  48.52000427
C     4.84000015  13.93000031  49.72000122
H     4.55071831  13.44316006  48.78865814
H     9.17000008  12.31999969  47.22999954
H    10.90999985  14.15999985  51.55000305
H     8.59000015  14.67000008  52.35000229
H     6.17000008  14.32000065  51.98999786
H     6.71999979  12.86999893  48.06999969
H    14.96999931  11.38000011  47.71999741
H     4.61999989  15.00000000  49.78000259
H     4.28000021  13.36999989  50.47999954
