96

S    12.00000000  16.77999878  43.99000168
C     9.39999962  17.36999893  44.75999832
C    10.65000057  16.87999916  45.11000061
C    11.00999928  16.57999992  46.45999908
C    10.06999969  16.54000092  47.45999908
C     8.73999977  16.86000061  47.09999847
C     7.63999987  16.65999985  48.02999878
C     6.38000011  17.01000023  47.68000031
C     5.98000002  17.39999962  46.30000305
C     7.00999975  17.48999977  45.38000107
C     8.36999989  17.31999969  45.75000000
C    12.42000008  16.28999901  46.60999680
C    13.10999966  16.39000130  45.38999939
C    14.51000023  16.39999962  45.21999741
C     4.56999969  17.71999931  45.96000290
H     4.32355261  17.27639580  44.99533844
H     9.27999973  17.64999962  43.72000122
H    10.42000008  16.23999977  48.43999863
H     7.96000004  16.31999969  49.01000214
H     5.66999960  17.18000031  48.48999786
H     6.88000011  17.72999954  44.33000183
H    15.00000000  16.63999939  44.27999878
H     4.05000019  17.31999969  46.84000015
H     4.35999966  18.78999901  45.90000153
S    15.70000076  15.76000023  49.02000046
C    18.45999908  15.39999962  48.29000092
C    17.13000107  15.80000019  47.97000122
C    16.72000122  16.09000015  46.59000015
C    17.71999931  16.26000023  45.63999939
C    19.07999992  16.02000046  46.02000427
C    20.15000153  16.00000000  45.00999832
C    21.45999908  15.72000027  45.30000305
C    21.77000046  15.34000015  46.65999985
C    20.81000137  15.14999962  47.61000061
C    19.51000023  15.51000023  47.30999756
C    15.25000000  16.17000008  46.40999603
C    14.59000015  15.98000050  47.63000107
C    13.20000076  15.95999908  47.77000046
C    23.15000153  15.01000023  46.93999863
H    23.34638023  15.32275200  47.96553421
H    18.63000107  14.98000050  49.27999878
H    17.30999947  16.43000031  44.65000153
H    19.90999985  16.36000061  44.02000046
H    22.20000076  15.69000053  44.51000214
H    21.01000023  14.93000031  48.64999771
H    12.68000031  15.86999989  48.72000122
H    23.78000069  15.65999985  46.31000137
H    23.43000031  13.94999981  46.90999985
S    16.13999939  13.12999916  52.22999954
C    18.78000069  12.63000011  51.56000137
C    17.46000099  12.60000038  51.24000168
C    17.04000092  12.11999989  49.94999695
C    17.94999886  11.61000061  49.05000305
C    19.34000015  11.80999947  49.22000122
C    20.23999977  11.49000072  48.20999908
C    21.55999947  11.54000092  48.48999786
C    22.07999992  11.92000008  49.72999954
C    21.15999985  12.44999981  50.68000031
C    19.77000046  12.35000038  50.51000214
C    15.62000084  12.32999992  49.79999924
C    15.01999950  12.94000053  50.91999817
C    13.66000080  13.32999992  50.90000153
C    23.45999908  11.43000031  50.20999908
H    23.88220596  11.87367535  51.11166000
H    19.09000015  12.98999977  52.54000092
H    17.67000008  11.11999989  48.11999893
H    19.85000038  11.38000011  47.19999695
H    22.27999878  11.23000050  47.74000168
H    21.47999954  12.71999931  51.69000244
H    13.30000019  13.61999989  51.88000107
H    23.46999931  10.36000061  50.45000076
H    24.11999893  11.57999992  49.34000015
S    12.15999985  12.05000019  47.41000366
C     9.59999943  12.89000034  48.04999924
C    10.93000031  12.82999992  48.41999817
C    11.46000004  13.31999969  49.64000320
C    10.50000000  13.68999958  50.61999893
C     9.10000038  13.71999931  50.33000183
C     8.13000011  14.19999981  51.32999802
C     6.80000019  14.21000004  50.91999817
C     6.38000011  13.71999931  49.61999893
C     7.30999994  13.17999935  48.73000336
C     8.67000008  13.30999947  48.99000168
C    12.89000034  13.14000034  49.75999832
C    13.50000000  12.43999958  48.66000366
C    14.82999992  12.09000015  48.64999771
C     4.86000013  13.76000023  49.25000000
H     4.70706654  13.50511074  48.20131302
H     9.15999985  12.61000061  47.09000015
H    10.84000015  13.71999931  51.65000153
H     8.43999958  14.70000076  52.23999786
H     6.07999992  14.77000046  51.52999878
H     6.98000002  12.82999992  47.75000000
H    15.26999950  11.72999954  47.71999741
H     4.55999994  14.80999947  49.34000015
H     4.26999998  13.19000053  49.98000336
