96

S    12.36999989  17.01000023  44.05000305
C     9.77999973  17.61999893  44.75000000
C    10.97000027  17.04000092  45.08999634
C    11.31999969  16.61999893  46.44000244
C    10.38000011  16.62999916  47.42000198
C     9.09000015  17.05999947  47.09999847
C     8.01000023  16.97000122  48.04999924
C     6.72999954  17.14999962  47.58999634
C     6.48000002  17.71999931  46.32999802
C     7.48000050  17.90999985  45.40999985
C     8.82000065  17.54999924  45.73999786
C    12.76999950  16.31999969  46.63999939
C    13.45999908  16.65999985  45.41999817
C    14.88000011  16.72999954  45.41999817
C     5.05999994  17.94999886  45.93000031
H     4.74493551  17.15183449  45.25786209
H     9.47000027  17.97000122  43.76999664
H    10.54999924  16.18000031  48.40000153
H     8.18000031  16.61999893  49.06000137
H     5.86000013  16.92000008  48.20999908
H     7.18999958  18.07999992  44.38000107
H    15.39000034  16.97000122  44.48999786
H     4.34999990  18.02999878  46.76000214
H     5.01999950  18.89999962  45.38000107
S    15.93999958  15.46000004  49.02000046
C    18.56999969  15.06999969  48.20000076
C    17.31999969  15.51000023  47.94000244
C    17.00000000  16.11999893  46.66999817
C    17.97999954  16.20000076  45.63999939
C    19.22000122  15.72999954  45.94999695
C    20.32999992  15.73999977  45.06999969
C    21.60000038  15.38000011  45.44000244
C    21.90999985  14.96999931  46.76000214
C    20.88999939  14.80000019  47.62000275
C    19.59000015  15.31999969  47.29000092
C    15.55999947  16.40999985  46.53999710
C    14.86999989  16.07999992  47.74000168
C    13.48000050  16.06999969  47.76000214
C    23.29000092  14.56999969  47.15999985
H    23.66522598  15.05346203  48.06198120
H    18.82999992  14.70000076  49.19000244
H    17.85000038  16.46999931  44.59000015
H    20.20999908  16.10999870  44.06000137
H    22.32999992  15.57999992  44.66999817
H    21.04000092  14.25000000  48.54000092
H    12.94000053  15.90999985  48.68999863
H    24.00000000  14.68000031  46.33999634
H    23.35000038  13.50999928  47.43999863
S    15.97000027  12.86999893  52.11999893
C    18.75000000  12.35999966  51.40999603
C    17.39999962  12.30999947  51.16000366
C    16.95000076  11.87999916  49.86999893
C    17.86000061  11.39999962  48.95000076
C    19.19999886  11.43000031  49.19000244
C    20.15000153  11.11999989  48.16999817
C    21.51000023  11.13999939  48.44999695
C    21.93000031  11.33999920  49.79999924
C    21.02000046  11.84999943  50.72999954
C    19.65999985  11.92000008  50.43000031
C    15.51000023  12.15000057  49.58000183
C    14.93000031  12.68000031  50.73999786
C    13.59000015  13.01000023  50.76000214
C    23.34000015  11.03000069  50.12000275
H    23.65814400  11.28451633  51.13099670
H    19.19000053  12.82999992  52.29000092
H    17.46999931  11.13999939  47.97000122
H    19.69000053  11.02000046  47.18000031
H    22.20000076  10.77999973  47.69000244
H    21.22999954  12.18000031  51.73999786
H    13.19000053  13.34000015  51.70999908
H    23.35000038   9.94000053  50.05000305
H    23.97000122  11.38000011  49.29999924
S    12.17000008  11.82999992  47.29000092
C     9.53999996  12.69999981  47.80000305
C    10.86999989  12.58999920  48.16999817
C    11.38000011  13.05999947  49.38000107
C    10.52000046  13.42000008  50.34999847
C     9.19999981  13.52000046  50.02999878
C     8.27000046  13.89000034  51.11000061
C     6.90999985  14.11000061  50.75000000
C     6.38999987  13.68999958  49.50000000
C     7.26000023  13.35999966  48.52000427
C     8.64000034  13.20000076  48.73000336
C    12.81999969  12.92000008  49.55999756
C    13.40999985  12.34000015  48.44999695
C    14.75999928  11.98999977  48.36999893
C     4.90999985  13.82999992  49.29999924
H     4.61050272  13.65885925  48.26602173
H     9.19000053  12.30999947  46.84999847
H    10.85000038  13.60000038  51.37000275
H     8.64999962  14.07999992  52.11000061
H     6.17999983  14.51000023  51.45000076
H     6.83000040  13.14000034  47.55000305
H    15.13000011  11.44999981  47.50000000
H     4.57999992  14.82999992  49.59999847
H     4.32000017  13.14000034  49.92000198
