96

S    12.30000019  17.20999908  44.05000305
C     9.70000076  17.73999977  44.93000031
C    10.97000027  17.21999931  45.18000031
C    11.33999920  16.87000084  46.49000168
C    10.48999977  16.86000061  47.64999771
C     9.15000057  17.28999901  47.41000366
C     8.21000004  17.36999893  48.43999863
C     6.94999981  17.70000076  48.11999893
C     6.46000004  17.88999939  46.77999878
C     7.42000008  18.06999969  45.83000183
C     8.78000069  17.71999931  46.07999802
C    12.77999973  16.72000122  46.58000183
C    13.45999908  16.77000046  45.34000015
C    14.80000019  16.87000084  45.17000198
C     4.94999981  18.32999992  46.52999878
H     4.51580286  17.69271088  45.75965118
H     9.31999969  18.05999947  43.96999741
H    10.86999989  16.55999947  48.61999893
H     8.67999935  17.18000031  49.40000153
H     6.34000015  17.81999969  49.01000214
H     7.09000015  18.31999969  44.81999969
H    15.11000061  17.09000015  44.15000153
H     4.44000006  18.20000076  47.49000168
H     4.86000013  19.38999939  46.25999832
S    15.97000027  15.90000057  48.93000031
C    18.53999901  15.39000034  48.08000183
C    17.38000107  15.92000008  47.80000305
C    16.97999954  16.44000053  46.49000168
C    17.97000122  16.51000023  45.47999954
C    19.27999878  16.03999901  45.80999756
C    20.29000092  15.98000050  44.79999924
C    21.59000015  15.46000004  45.10000229
C    21.90999985  15.00000000  46.44000244
C    20.93000031  14.93000031  47.35000229
C    19.63000107  15.44000053  47.08000183
C    15.52999973  16.60000038  46.35000229
C    14.88999939  16.36999893  47.61000061
C    13.50000000  16.46999931  47.75000000
C    23.34000015  14.63999939  46.84000015
H    23.66326904  15.13895798  47.75358582
H    18.78000069  15.06000042  49.09000015
H    17.71999931  16.95999908  44.52000046
H    20.05000114  16.42000008  43.83999634
H    22.32000160  15.44000053  44.29999924
H    21.02000046  14.63999939  48.39000320
H    13.10999966  16.36000061  48.75000000
H    23.95000076  14.96000099  45.97999954
H    23.35000038  13.55000019  46.95000076
S    11.92000008  17.53000069  50.93999863
C     9.30999947  18.00000000  51.84000015
C    10.59999943  17.51000023  52.08000183
C    10.95999908  17.14999962  53.34999847
C     9.96999931  17.15999985  54.38999939
C     8.67999935  17.53000069  54.13000107
C     7.57999992  17.46999931  55.04000092
C     6.25000000  17.71999931  54.72999954
C     5.98999977  18.09999847  53.37999725
C     6.97000027  18.27999878  52.48000336
C     8.31999969  17.97000122  52.84000015
C    12.38000011  17.00000000  53.50999832
C    13.02999973  17.34000015  52.25999832
C    14.42000008  17.06999969  52.22000122
C     4.51999998  18.38000107  53.02000046
H     4.16385174  17.74605560  52.20798111
H     9.06000042  18.47999954  50.90000153
H    10.21999931  16.79999924  55.38999939
H     7.86999989  17.13999939  56.04000092
H     5.49000025  17.70000076  55.50000000
H     6.76999998  18.71999931  51.50000000
H    14.92000008  17.05999947  51.25000000
H     3.91000009  18.25000000  53.92000198
H     4.39000034  19.45000076  52.81000137
S    15.62000084  16.18999863  55.91999817
C    18.25000000  15.77999973  55.00999832
C    16.97000122  16.09000015  54.77000427
C    16.54999924  16.48999977  53.47999954
C    17.46999931  16.45000076  52.37999725
C    18.81000137  16.14999962  52.55000305
C    19.77000046  16.05999947  51.45999908
C    21.07999992  15.72999954  51.81000137
C    21.42000008  15.39000034  53.18000031
C    20.48000145  15.38000011  54.15999985
C    19.15999985  15.80999947  53.90999603
C    15.15999985  16.79000092  53.36999893
C    14.47999954  16.56999969  54.59000015
C    13.14000034  16.76000023  54.73999786
C    22.82999992  14.96999931  53.62999725
H    23.04845428  15.37872124  54.61656952
H    18.60000038  15.70000076  56.03000259
H    17.14999962  16.43000031  51.33999634
H    19.34000015  16.31999969  50.50000000
H    21.86000061  15.60999966  51.05999756
H    20.84000015  15.24000072  55.17000198
H    12.60000038  16.61000061  55.66999817
H    23.57999992  15.44999981  52.97999954
H    22.98999977  13.89000034  53.53000259
