96

S    12.42000008  17.05999947  44.27000046
C     9.68999958  17.14999962  44.98000336
C    10.95000076  16.73999977  45.21999741
C    11.31000042  16.27000046  46.52999878
C    10.38000011  16.28999901  47.56999969
C     9.06000042  16.69000053  47.36999893
C     8.05999947  16.65999985  48.36000061
C     6.72999954  16.94000053  48.11000061
C     6.37000036  17.38999939  46.77000046
C     7.37999964  17.63000107  45.81999969
C     8.71999931  17.07999992  46.02000427
C    12.75000000  16.17000008  46.77999878
C    13.45000076  16.56999969  45.61999893
C    14.82999992  16.54000092  45.56999969
C     4.99000025  17.71999931  46.44000244
H     4.62162733  17.27517319  45.51559448
H     9.44999981  17.48999977  43.96999741
H    10.67000008  16.00000000  48.56999969
H     8.34999943  16.18000031  49.29000092
H     6.01000023  16.87999916  48.92000198
H     7.17999983  18.17000008  44.88999939
H    15.39000034  16.90000153  44.72000122
H     4.32999992  17.43999863  47.25999832
H     4.84000015  18.81000137  46.33999634
S    16.13000107  15.32999992  49.16999817
C    18.73999977  15.01000023  48.18999863
C    17.43999863  15.21000004  47.97999954
C    17.05000114  15.78999996  46.77999878
C    17.97999954  16.13000107  45.76000214
C    19.38999939  15.84000015  45.93999863
C    20.46999931  15.95999908  44.94999695
C    21.76000214  15.65000057  45.27000046
C    22.09000015  15.14999962  46.56000137
C    21.11000061  14.91000080  47.50000000
C    19.71999931  15.22999954  47.21000290
C    15.60999966  16.05999947  46.66999817
C    14.96999931  15.80000019  47.90000153
C    13.53000069  15.80999947  47.95000076
C    23.52999878  15.03999901  46.91999817
H    23.64413834  14.91872501  47.99720001
H    19.04999924  14.61999989  49.15999985
H    17.56000137  16.61999893  44.88999939
H    20.22000122  16.50000000  44.03999710
H    22.59000015  15.92000008  44.62999725
H    21.35000038  14.60999966  48.52000427
H    13.15999985  15.52999973  48.93000031
H    23.92000008  16.01000023  46.59000015
H    24.13000107  14.29999924  46.37000275
S    16.21000099  12.75000000  52.08000183
C    18.84000015  12.35999966  51.37000275
C    17.51000023  12.28999996  50.97999954
C    17.05999947  11.96000004  49.71000290
C    17.88999939  11.67000008  48.67000198
C    19.27999878  11.76000023  49.01000214
C    20.29000092  11.31000042  48.16999817
C    21.56999969  11.00000000  48.60000229
C    22.03000069  11.47999954  49.85000229
C    21.14000130  12.01000023  50.70000076
C    19.73999977  12.13999939  50.34999847
C    15.59999943  12.02999973  49.68000031
C    15.03999901  12.60000038  50.87999725
C    13.67000008  12.97999954  51.06999969
C    23.45000076  11.23000050  50.35999680
H    23.66189957  11.62457085  51.35373306
H    19.26000023  12.50000000  52.36000061
H    17.42000008  11.39999962  47.72999573
H    19.96999931  10.86999989  47.22999954
H    22.21999931  10.42000008  47.95999908
H    21.44000053  12.25000000  51.72000122
H    13.21000004  13.34000015  51.97999954
H    23.65999985  10.14999962  50.27999878
H    24.14999962  11.77000046  49.71000290
S    12.13000107  12.13999939  47.50000000
C     9.59000015  12.96000004  48.33000183
C    10.95000076  12.88000011  48.60000229
C    11.44999981  13.23999977  49.88999939
C    10.62000084  13.60999966  50.91999817
C     9.22999954  13.76999950  50.70999908
C     8.27999973  14.34999943  51.58000183
C     6.94000006  14.39000034  51.26999664
C     6.44999981  13.86000061  50.07999802
C     7.30999994  13.36999989  49.16999817
C     8.73999977  13.36999989  49.38000107
C    12.88000011  12.86000061  49.93000031
C    13.40999985  12.25999928  48.72000122
C    14.70999908  11.80999947  48.61999893
C     4.92000008  13.99000072  49.75999832
H     4.66949892  13.84387493  48.70928574
H     9.22999954  12.69999981  47.34000397
H    11.16000080  13.90999985  51.81999969
H     8.67000008  14.75999928  52.50999832
H     6.19999981  14.85000038  51.91999817
H     6.96000004  13.02000046  48.20000076
H    15.15999985  11.40999985  47.71999741
H     4.55000019  15.01000023  49.97000122
H     4.40000010  13.26000023  50.40000153
