96

S    12.28000069  16.87999916  44.31000137
C     9.71000004  17.36999893  45.00999832
C    10.95999908  17.14999962  45.40999985
C    11.28000069  16.84000015  46.81000137
C    10.24000072  16.61999893  47.64999771
C     8.89999962  16.90000153  47.29000092
C     7.77999973  16.75000000  48.13999939
C     6.52999973  17.17000008  47.74000168
C     6.28999996  17.76000023  46.50000000
C     7.30000019  17.73999977  45.59999847
C     8.63000011  17.30999947  45.93999863
C    12.68000031  16.60000038  46.86999893
C    13.35999966  16.65999985  45.65999985
C    14.75000000  16.60000038  45.54000092
C     4.92999983  18.12000084  45.97999954
H     4.57360792  17.53551674  45.13178635
H     9.48999977  17.65999985  43.99000168
H    10.39000034  16.40999985  48.70999908
H     7.92999983  16.32999992  49.13000107
H     5.73999977  17.04000092  48.47000122
H     7.03999996  18.04000092  44.59000015
H    15.26000023  16.73999977  44.59000015
H     4.15000010  17.98999977  46.73999786
H     4.86999989  19.19999886  45.79999924
S    15.80999947  15.69000053  49.33000183
C    18.44000053  15.21999931  48.52000427
C    17.14999962  15.53999996  48.18999863
C    16.90999985  15.95000076  46.86999893
C    17.89999962  15.90999985  45.90999985
C    19.23999977  15.53999996  46.18999863
C    20.36000061  15.57999992  45.24000168
C    21.56999969  15.14999962  45.72000122
C    21.81999969  14.75000000  47.09000015
C    20.86000061  14.82999992  48.06000137
C    19.51000023  15.14999962  47.56999969
C    15.48999977  16.28999901  46.75000000
C    14.78000069  16.11999893  48.00000000
C    13.43000031  16.39999962  48.04000092
C    23.25000000  14.35999966  47.50000000
H    23.51339531  14.86599541  48.42881012
H    18.61999893  14.80999947  49.52000046
H    17.75000000  16.29999924  44.91000366
H    20.13000107  15.84000015  44.20999908
H    22.30999947  15.05000019  44.92000198
H    21.04999924  14.78999996  49.13000107
H    12.94999981  16.54999924  49.00000000
H    23.98999977  14.59000015  46.72000122
H    23.22999954  13.27000046  47.65999603
S    11.51000023  17.13999939  51.19999695
C     8.89000034  17.28000069  51.68000031
C    10.08999920  17.00000000  52.11999893
C    10.44000053  16.63999939  53.47999954
C     9.44000053  16.54000092  54.36999893
C     8.09000015  16.88999939  54.00000000
C     7.02000046  17.01000023  54.93999863
C     5.79999971  17.51000023  54.64000320
C     5.60999966  17.98999977  53.27000046
C     6.57999992  17.94000053  52.30999756
C     7.82999992  17.38000107  52.67000198
C    11.92999935  16.51000023  53.70999908
C    12.56000042  16.81999969  52.55000305
C    13.96999931  16.86000061  52.47000122
C     4.21999979  18.53000069  52.78999710
H     3.77380753  18.07649231  51.90493011
H     8.63000011  17.57999992  50.66999817
H     9.65999985  16.29999924  55.40999985
H     7.30000019  16.76000023  55.96000290
H     4.99000025  17.38999939  55.34999847
H     6.28000021  18.20000076  51.30000305
H    14.42000008  17.05000114  51.51000214
H     3.50000000  18.44000053  53.61999893
H     4.25000000  19.61000061  52.56000137
S    15.03999901  15.78999996  56.06999969
C    17.75000000  15.59000015  55.40999985
C    16.47999954  15.88000107  55.04000092
C    16.17000008  16.39000130  53.70999908
C    17.23999977  16.50000000  52.81000137
C    18.56999969  16.10000038  53.11000061
C    19.68000031  16.15999985  52.15999985
C    20.93000031  15.73999977  52.63999939
C    21.15999985  15.15999985  53.92000198
C    20.15000153  15.14000034  54.86000061
C    18.82999992  15.62000084  54.51000214
C    14.73000050  16.61000061  53.57999802
C    14.01999950  16.28999901  54.75999832
C    12.64000034  16.42000008  54.89999771
C    22.60999870  14.78000069  54.23999786
H    22.96398354  15.43243885  55.03819656
H    17.94000053  15.11000061  56.36000061
H    17.07999992  16.72999954  51.76000214
H    19.45000076  16.65999985  51.22000122
H    21.77999878  15.92000008  51.97999954
H    20.19000053  14.72000027  55.86999893
H    12.18000031  16.38000107  55.87999725
H    23.12999916  14.78000069  53.27999878
H    22.50000000  13.73000050  54.51000214
