96

S    12.32999992  16.93000031  44.22000122
C     9.71000004  17.47999954  45.11000061
C    10.95999908  16.88999939  45.37000275
C    11.36000061  16.47999954  46.68000031
C    10.39000034  16.48999977  47.71999741
C     9.07999992  16.95000076  47.48000336
C     8.14000034  17.13000107  48.48999786
C     6.80999994  17.36999893  48.16999817
C     6.44000006  17.60000038  46.77999878
C     7.36999989  17.61000061  45.79999924
C     8.71999931  17.32999992  46.11000061
C    12.76999950  16.39000130  46.79000092
C    13.45000076  16.62999916  45.56000137
C    14.86999989  16.60000038  45.52000046
C     4.98000002  17.84000015  46.42000198
H     4.57481050  17.25317383  45.59564972
H     9.48000050  17.78000069  44.09000015
H    10.64000034  16.38000107  48.76999664
H     8.47999954  16.80999947  49.47000122
H     6.06999969  17.40999985  48.95999908
H     7.00999975  17.86000061  44.80999756
H    15.53999996  16.72000122  44.66999817
H     4.39000034  17.81999969  47.35000229
H     4.94999981  18.92000008  46.20999908
S    15.88999939  15.39000034  49.23999786
C    18.51000023  15.10000038  48.47999954
C    17.28000069  15.55999947  48.16999817
C    16.98999977  16.04999924  46.81000137
C    18.02000046  16.21000099  45.87999725
C    19.29999924  15.78999996  46.29000092
C    20.34000015  15.77000046  45.35999680
C    21.57999992  15.36000061  45.72000122
C    21.90999985  14.96999931  47.09000015
C    20.90999985  14.85000038  48.04000092
C    19.54000092  15.26999950  47.60000229
C    15.52999973  16.18000031  46.66999817
C    14.82999992  15.95000076  47.88999939
C    13.50000000  16.09000015  47.97000122
C    23.25000000  14.57999992  47.43999863
H    23.65340424  15.21077538  48.23213959
H    18.68000031  14.60000038  49.43000031
H    17.76000023  16.62999916  44.91000366
H    20.20999908  16.15999985  44.36000061
H    22.34000015  15.36000061  44.93999863
H    20.95999908  14.42000008  49.03999710
H    12.92000008  15.88000107  48.87000275
H    23.88999939  14.67000008  46.56000137
H    23.22999954  13.53999996  47.78999710
S    15.88000107  13.25000000  52.22000122
C    18.42000008  12.51999950  51.46999741
C    17.06999969  12.46000099  51.23000336
C    16.46000099  11.96000004  49.99000168
C    17.35999870  11.51999950  49.06000137
C    18.76000023  11.54999924  49.20999908
C    19.73999977  11.21999931  48.25000000
C    21.04000092  11.10999966  48.56999969
C    21.54000092  11.40999985  49.92000198
C    20.69999886  11.92999935  50.80999756
C    19.27000046  12.03999996  50.47999954
C    15.03999901  12.25000000  49.87999725
C    14.52999973  12.84000015  51.04999924
C    13.22000027  13.17999935  51.16000366
C    23.05000114  11.16000080  50.24000168
H    23.31705475  11.41299820  51.26604843
H    18.85000038  12.93000031  52.37999725
H    16.95999908  11.00999928  48.18999863
H    19.37999916  10.92000008  47.27000427
H    21.77000046  10.73999977  47.84999847
H    21.04000092  12.28999996  51.77999878
H    12.92000008  13.73999977  52.04000092
H    23.38999939  10.14000034  50.04000092
H    23.67000198  11.65999985  49.47000122
S    11.64000034  12.46000099  47.56999969
C     9.13999939  13.21000004  48.29000092
C    10.39999962  12.97999954  48.64999771
C    10.95999908  13.35999966  49.93999863
C    10.03000069  13.90999985  50.90999985
C     8.65999985  14.07999992  50.56000137
C     7.71000004  14.45000076  51.52000046
C     6.39999962  14.65000057  51.18000031
C     5.96000004  14.27999973  49.89999771
C     6.81999969  13.76999950  48.97999573
C     8.23000050  13.64999962  49.27000046
C    12.38000011  12.98999977  50.06000137
C    12.92000008  12.51000023  48.81000137
C    14.22000027  12.09000015  48.74000168
C     4.61000013  14.53999996  49.54000092
H     4.35730648  14.02017307  48.61586380
H     8.92000008  13.02999973  47.23999786
H    10.21000004  14.04000092  51.97999954
H     8.06999969  14.84000015  52.45999908
H     5.66999960  15.10000038  51.84000015
H     6.44000006  13.71999931  47.95999908
H    14.65000057  11.72999954  47.81999969
H     4.63000011  15.62000084  49.34999847
H     3.86000013  14.32000065  50.31000137
