96

S    12.05999947  16.72999954  44.20000076
C     9.48999977  17.27000046  45.08999634
C    10.73999977  16.73999977  45.35999680
C    11.10999966  16.38000107  46.69000244
C    10.06999969  16.27000046  47.65999603
C     8.73000050  16.61999893  47.30999756
C     7.71000004  16.45000076  48.29000092
C     6.38000011  16.88999939  47.95000076
C     6.17000008  17.69000053  46.79000092
C     7.17000008  17.76000023  45.86999893
C     8.43000031  17.14999962  46.03000259
C    12.56000042  16.13999939  46.72000122
C    13.17999935  16.39999962  45.52999878
C    14.59000015  16.42000008  45.54000092
C     4.75000000  18.01000023  46.44000244
H     4.50325203  17.50924683  45.50380707
H     9.30000019  17.70000076  44.12000275
H    10.32999992  15.78999996  48.60000229
H     8.00000000  15.95999908  49.20999908
H     5.55999994  16.46000099  48.50999832
H     6.94000006  18.23999977  44.92000198
H    14.98999977  16.53000069  44.54000092
H     4.19000006  17.60000038  47.29999924
H     4.65000010  19.10000038  46.45999908
S    15.69000053  15.39000034  49.22999954
C    18.38000107  15.15999985  48.66000366
C    17.10000038  15.48999977  48.23999786
C    16.79999924  15.86999989  46.90000153
C    17.82999992  16.00000000  45.89000320
C    19.13999939  15.52000046  46.26999664
C    20.23999977  15.53999996  45.34000015
C    21.56999969  15.25000000  45.72999954
C    21.76000214  14.75999928  47.02000046
C    20.75000000  14.78999996  47.97000122
C    19.38999939  15.14000034  47.64999771
C    15.34000015  16.05999947  46.72000122
C    14.60999966  15.73999977  47.85999680
C    13.25000000  15.76000023  47.81999969
C    23.02000046  14.22999954  47.50999832
H    23.59565544  15.02872181  47.97771835
H    18.61999893  14.93000031  49.68999863
H    17.59000015  16.21000099  44.85000229
H    20.06999969  15.62000084  44.27000046
H    22.30999947  15.14999962  44.93999863
H    20.97999954  14.44000053  48.96999741
H    12.58999920  15.69000053  48.68999863
H    23.55999947  14.00000000  46.58000183
H    22.82999992  13.35999966  48.15000153
S    11.69999981  17.09000015  50.76000214
C     9.06999969  17.71999931  51.55000305
C    10.32999992  17.20999908  51.86000061
C    10.64000034  16.70999908  53.13000107
C     9.61000061  16.75000000  54.06000137
C     8.32999992  17.25000000  53.81999969
C     7.25000000  17.09000015  54.72999954
C     5.96000004  17.38000107  54.33000183
C     5.66999960  17.84000015  52.97999954
C     6.70000029  18.05999947  52.04999924
C     8.06999969  17.79999924  52.50000000
C    12.07999992  16.44000053  53.22000122
C    12.81999969  16.61999893  52.02000046
C    14.22000027  16.69000053  51.95999908
C     4.19000006  18.04999924  52.45999908
H     3.82296348  17.42387962  51.64675903
H     8.80000019  18.09000015  50.56000137
H     9.77000046  16.31000137  55.04000092
H     7.49000025  16.70999908  55.72000122
H     5.12000036  17.19000053  54.99000168
H     6.51000023  18.31999969  51.00999832
H    14.75999928  16.98999977  51.05999756
H     3.55999994  17.94999886  53.34999847
H     4.03999996  19.09000015  52.15000153
S    15.25000000  15.81999969  55.65999985
C    17.97000122  15.19999981  54.94999695
C    16.70999908  15.65999985  54.68000031
C    16.42000008  16.13999939  53.34999847
C    17.39999962  16.17000008  52.44999695
C    18.67000008  15.81999969  52.77000046
C    19.69000053  16.06999969  51.79999924
C    21.02000046  15.64000034  52.09999847
C    21.27000046  15.03000069  53.33000183
C    20.25000000  14.85000038  54.29999924
C    18.97999954  15.26999950  53.97999573
C    14.98999977  16.39999962  53.16999817
C    14.19000053  16.23999977  54.29999924
C    12.82999992  16.18000031  54.34999847
C    22.72999954  14.73999977  53.59000397
H    23.05704308  14.98883724  54.59957123
H    18.18000031  14.84000015  55.94999695
H    17.18000031  16.42000008  51.40999603
H    19.50000000  16.63999939  50.90000153
H    21.77999878  15.95999908  51.38999939
H    20.52999878  14.55999947  55.31000137
H    12.23000050  16.10000038  55.25000000
H    23.39999962  15.14999962  52.81999969
H    22.85000038  13.66000080  53.46000290
