96

S    12.38999939  17.11000061  44.19000244
C     9.73999977  17.25000000  44.98000336
C    11.02000046  16.82999992  45.27999878
C    11.40999985  16.43000031  46.59000015
C    10.50000000  16.34000015  47.63000107
C     9.19999981  16.92000008  47.35000229
C     8.19999981  16.97000122  48.31999969
C     6.89000034  17.46999931  48.02000046
C     6.57999992  17.88999939  46.72000122
C     7.53000021  17.82999992  45.76000214
C     8.82999992  17.36999893  45.98999786
C    12.81000042  16.28000069  46.72999954
C    13.45999908  16.67000008  45.52000046
C    14.84000015  16.70999908  45.43000031
C     5.15999985  18.23999977  46.32999802
H     4.75970984  17.52675629  45.60947800
H     9.59999943  17.72999954  44.02000046
H    10.76000023  16.06999969  48.64999771
H     8.40999985  16.60000038  49.31999969
H     6.11999989  17.31999969  48.76999664
H     7.30000019  18.20999908  44.77000427
H    15.42000008  16.98999977  44.55999756
H     4.53999996  18.22999954  47.23999786
H     5.13999987  19.29000092  46.00000000
S    15.97000027  15.51000023  49.09000015
C    18.59000015  15.10000038  48.15999985
C    17.35999870  15.60999966  47.95999908
C    16.97999954  16.13999939  46.72000122
C    17.94000053  16.34000015  45.75000000
C    19.19999886  15.81999969  45.97000122
C    20.28000069  15.93999958  44.95999908
C    21.53000069  15.34999943  45.17000198
C    21.78999901  14.67000008  46.37000275
C    20.88000107  14.55999947  47.41000366
C    19.56999969  15.14999962  47.16999817
C    15.57999992  16.34000015  46.56999969
C    14.96000099  16.10999870  47.76000214
C    13.57999992  15.98999977  47.85999680
C    23.22000122  14.22999954  46.72000122
H    23.63562584  14.78894329  47.55841446
H    18.78000069  14.47999954  49.02999878
H    17.80999947  16.95000076  44.85000229
H    20.10999870  16.40999985  44.00000000
H    22.36000061  15.43000031  44.47999954
H    21.14999962  14.09000015  48.34999847
H    13.05999947  15.90000057  48.81000137
H    23.85000038  14.27000046  45.81999969
H    23.18000031  13.15000057  46.90000153
S    16.43000031  12.72999954  52.45999908
C    19.11000061  12.46000099  51.49000168
C    17.70000076  12.46000099  51.31000137
C    17.20000076  12.03999996  50.06999969
C    18.00000000  11.51999950  49.09999847
C    19.40000153  11.64999962  49.22000122
C    20.35000038  11.14999962  48.26000214
C    21.73000145  11.09000015  48.43000031
C    22.26000023  11.51000023  49.68000031
C    21.35999870  12.06999969  50.63999939
C    19.96000099  12.13000107  50.38999939
C    15.82999992  12.28999996  49.97000122
C    15.19999981  12.61999989  51.19999695
C    13.89999962  12.93000031  51.24000168
C    23.67000198  11.21999931  50.08999634
H    23.95325470  11.51778126  51.09954834
H    19.55000114  12.69999981  52.45999908
H    17.56999969  11.26000023  48.13999939
H    19.90999985  10.84000015  47.31999969
H    22.32000160  10.57999992  47.67000198
H    21.61999893  12.05000019  51.69000244
H    13.48999977  13.26000023  52.18999863
H    23.65999985  10.11999989  50.05000305
H    24.34999847  11.52999973  49.29000092
S    12.46999931  12.05000019  47.67000198
C     9.85999966  12.82999992  48.29999924
C    11.16000080  12.60000038  48.66000366
C    11.72000027  12.98999977  49.95999908
C    10.77999973  13.63000011  50.79999924
C     9.38000011  13.82999992  50.45999908
C     8.45000076  14.46000004  51.31999969
C     7.16000032  14.47000027  50.97999954
C     6.60000038  13.88000011  49.81999969
C     7.48000050  13.28999996  48.92000198
C     8.92000008  13.25000000  49.26000214
C    13.14000034  12.76000023  50.11000061
C    13.73999977  12.30999947  48.90999603
C    15.11999989  12.02999973  48.77999878
C     5.15999985  14.22000027  49.40000153
H     4.91388083  13.80511379  48.42255783
H     9.52000046  12.50000000  47.31999969
H    11.13999939  14.09000015  51.72000122
H     8.69999981  14.98999977  52.23999786
H     6.48000002  15.13000011  51.52000046
H     7.23000002  13.01000023  47.90000153
H    15.59999943  11.68000031  47.88000107
H     4.88000011  15.27999973  49.40000153
H     4.59999990  13.61999989  50.13000107
