96

S    12.30000019  16.70999908  44.29000092
C     9.61000061  16.95000076  44.89999771
C    10.84000015  16.50000000  45.28999710
C    11.14999962  16.17000008  46.60999680
C    10.07999992  16.18000031  47.41000366
C     8.86999989  16.77999878  47.12999725
C     7.78999996  16.80999947  48.06000137
C     6.61999989  17.35000038  47.71999741
C     6.37000036  17.79999924  46.42000198
C     7.32999992  17.77000046  45.44000244
C     8.57999992  17.19000053  45.79999924
C    12.56000042  16.21000099  46.88000107
C    13.28999996  16.50000000  45.70000076
C    14.65999985  16.69000053  45.68999863
C     4.90000010  18.22999954  46.11000061
H     4.61575460  17.93154144  45.10092926
H     9.48000050  17.25000000  43.86000061
H    10.10000038  15.67000008  48.36000061
H     7.92000008  16.44000053  49.06999969
H     5.88000011  17.35999870  48.52000427
H     7.13000011  18.15999985  44.43999863
H    15.11000061  16.62999916  44.69999695
H     4.19000006  17.71000099  46.76000214
H     4.96000004  19.32999992  46.18999863
S    15.75000000  15.42000008  49.33000183
C    18.37000084  14.89999962  48.40000153
C    17.12000084  15.52999973  48.22000122
C    16.82999992  16.28999901  47.02000046
C    17.73999977  16.17000008  45.97999954
C    19.01000023  15.60999966  46.13999939
C    19.93999863  15.57999992  45.08999634
C    21.11999893  14.92000008  45.31000137
C    21.42999840  14.35999966  46.55000305
C    20.53999901  14.22000027  47.56999969
C    19.29000092  14.92000008  47.36999893
C    15.36000061  16.47999954  46.88999939
C    14.67000008  16.09000015  48.04000092
C    13.30000019  15.93000031  48.01000214
C    22.79999924  14.04999924  46.97000122
H    23.13341141  14.62050343  47.83686829
H    18.57999992  14.40000057  49.34000015
H    17.34000015  16.46999931  45.01999664
H    19.51000023  15.92000008  44.15000153
H    21.88999939  15.01000023  44.54999924
H    20.86999893  13.94000053  48.56999969
H    12.72999954  15.52000046  48.83999634
H    23.45000076  14.11000061  46.09000397
H    22.76000023  13.00000000  47.25999832
S    16.21999931  12.71000004  52.14000320
C    18.78000069  11.97999954  51.42000198
C    17.47999954  12.13999939  51.04000092
C    17.05000114  11.87999916  49.68999863
C    17.97999954  11.51000023  48.75000000
C    19.30999947  11.26000023  49.19000244
C    20.31999969  10.75000000  48.34000015
C    21.64999962  10.62999916  48.68000031
C    22.03000069  11.00000000  50.00000000
C    21.09999847  11.46000004  50.90999985
C    19.70999908  11.52999973  50.52000046
C    15.62000084  12.05999947  49.58000183
C    15.10000038  12.55000019  50.79999924
C    13.73000050  12.88000011  50.86999893
C    23.48999977  10.77999973  50.34000015
H    23.74133110  11.15699768  51.33136368
H    19.04999924  12.39999962  52.38999939
H    17.64000130  11.54999924  47.71999741
H    19.97999954  10.47999954  47.35000229
H    22.43000031  10.27999973  48.01000214
H    21.31000137  11.64000034  51.95999908
H    13.25000000  13.21000004  51.77999878
H    23.78000069   9.72000027  50.28999710
H    24.13000107  11.18999958  49.54999924
S    12.38000011  11.77999973  47.30999756
C     9.71000004  12.36999989  48.08000183
C    11.03999996  12.38000011  48.36000061
C    11.44999981  12.84999943  49.64000320
C    10.57000065  13.48000050  50.50000000
C     9.19999981  13.64999962  50.10000229
C     8.26000023  14.02999973  51.13999939
C     6.93000031  13.96000004  50.87999725
C     6.47000027  13.45000076  49.65999985
C     7.36000013  12.93000031  48.69999695
C     8.76000023  12.97000027  48.94000244
C    12.90999985  12.64999962  49.75999832
C    13.50999928  12.03999996  48.61000061
C    14.85000038  11.76000023  48.50000000
C     5.05999994  13.35000038  49.43999863
H     4.76146746  13.58136368  48.41752625
H     9.35000038  12.02000046  47.11000061
H    10.84000015  13.89999962  51.45999908
H     8.63000011  14.32000065  52.11999893
H     6.19000006  14.35999966  51.56999969
H     7.00000000  12.43999958  47.80000305
H    15.27999973  11.35000038  47.58999634
H     4.51999998  14.11000061  50.01999664
H     4.82999992  12.34000015  49.79999924
