96

S    12.56999969  17.13000107  44.27999878
C     9.85000038  17.50000000  45.06000137
C    11.06999969  16.97000122  45.27999878
C    11.32999992  16.31000137  46.53999710
C    10.27999973  16.04999924  47.42000198
C     8.98999977  16.56999969  47.18000031
C     7.86999989  16.31999969  48.04999924
C     6.63999987  16.87999916  47.77999878
C     6.38999987  17.56999969  46.56999969
C     7.44000006  17.72999954  45.68999863
C     8.78999996  17.34000015  45.97999954
C    12.69999981  16.22999954  46.77999878
C    13.45000076  16.67000008  45.61999893
C    14.81999969  16.62999916  45.59999847
C     5.05999994  18.22999954  46.20999908
H     4.69267511  17.98276138  45.21398544
H     9.63000011  18.22999954  44.27999878
H    10.44000053  15.42000008  48.29000092
H     8.03999996  15.72999954  48.95000076
H     5.84000015  16.67000008  48.47999954
H     7.31999969  18.26000023  44.75000000
H    15.39000034  16.77999878  44.68999863
H     4.33999968  17.97999954  46.98999786
H     5.22000027  19.30999947  46.37000275
S    15.82999992  15.67000008  49.34999847
C    18.51000023  15.26000023  48.76999664
C    17.25000000  15.59999943  48.31999969
C    16.87999916  15.88999939  46.97000122
C    17.86000061  15.85999966  46.04000092
C    19.12999916  15.34000015  46.38000107
C    20.13999939  15.14000034  45.38000107
C    21.40999985  14.77000046  45.68999863
C    21.75000000  14.57999992  47.02999878
C    20.82999992  14.68999958  48.02999878
C    19.47999954  15.01999950  47.71999741
C    15.50000000  16.27000046  46.77000046
C    14.82999992  15.90999985  47.91999817
C    13.45999908  15.73999977  47.91999817
C    23.16999817  14.14999962  47.34000397
H    23.54127502  14.63335991  48.24367142
H    18.78999901  15.17000008  49.81999969
H    17.59000015  16.17000008  45.04000092
H    19.84000015  15.39999962  44.36999893
H    22.20000076  14.70999908  44.93999863
H    21.09000015  14.52000046  49.06999969
H    12.89000034  15.42000008  48.79000092
H    23.78999901  14.40999985  46.47999573
H    23.25000000  13.05999947  47.37999725
S    12.03999996  17.36999893  51.04000092
C     9.36999989  17.54999924  51.60999680
C    10.62000084  17.19000053  51.98999786
C    10.85000038  16.68000031  53.27000046
C     9.80000019  16.61000061  54.18000031
C     8.43999958  17.00000000  53.82999802
C     7.36999989  17.05999947  54.75999832
C     6.19999981  17.46000099  54.33000183
C     5.97000027  17.94999886  53.04000092
C     7.00000000  18.01000023  52.14000320
C     8.27999973  17.50000000  52.52999878
C    12.25999928  16.47999954  53.43000031
C    13.04999924  16.84999847  52.35000229
C    14.37000084  17.00000000  52.39999771
C     4.59999990  18.31999969  52.70999908
H     4.27019501  17.84680176  51.78511429
H     9.23999977  17.90999985  50.59000015
H    10.03000069  16.52000046  55.22999573
H     7.46999979  16.79999924  55.80999756
H     5.28999996  17.31999969  54.91000366
H     6.90000010  18.44000053  51.13999939
H    14.93999958  17.42000008  51.58000183
H     3.88000011  18.12000084  53.52000427
H     4.53000021  19.42000008  52.70000076
S    15.24000072  15.62000084  56.00999832
C    18.06999969  15.43000031  55.31000137
C    16.77000046  15.86999989  55.06000137
C    16.46999931  16.38000107  53.77999878
C    17.42000008  16.47999954  52.81000137
C    18.68000031  15.97000027  52.97000122
C    19.73999977  16.01000023  52.01000214
C    20.98999977  15.50000000  52.16999817
C    21.31999969  14.98000050  53.47999954
C    20.36000061  15.01000023  54.47999954
C    19.03000069  15.46000004  54.26000214
C    15.01000023  16.54999924  53.53000259
C    14.29999924  16.05999947  54.62999725
C    12.89999962  15.98999977  54.59000015
C    22.75000000  14.65999985  53.73000336
H    23.05534935  15.05986309  54.69694138
H    18.30999947  14.84000015  56.18000031
H    17.02000046  16.72999954  51.83000183
H    19.60000038  16.52000046  51.05999756
H    21.64999962  15.62999916  51.31999969
H    20.52000046  14.61999989  55.47999954
H    12.30000019  15.67000008  55.44000244
H    23.29000092  15.11000061  52.88999939
H    22.81999969  13.55999947  53.68000031
