96

S    12.05000019  17.14999962  44.43000031
C     9.39000034  17.52000046  45.06000137
C    10.65000057  17.15999985  45.47000122
C    10.98000050  16.97000122  46.79999924
C    10.00000000  16.90000153  47.71999741
C     8.64000034  17.20000076  47.35000229
C     7.59999990  17.01000023  48.27999878
C     6.28999996  17.35000038  47.97000122
C     5.98000002  17.87999916  46.63999939
C     7.03000021  18.07999992  45.79000092
C     8.31999969  17.54999924  46.03000259
C    12.43999958  16.88999939  47.01000214
C    13.15999985  17.13000107  45.79999924
C    14.48999977  16.88999939  45.63999939
C     4.61000013  18.29000092  46.18000031
H     4.22831583  17.64460564  45.38887405
H     9.17000008  17.98999977  44.09999847
H    10.19999981  16.50000000  48.72000122
H     7.82000017  16.53000069  49.22999954
H     5.40000010  17.28000069  48.59000397
H     6.88000011  18.43000031  44.77000427
H    14.92000008  16.95000076  44.65000153
H     3.94000006  18.32999992  47.04999924
H     4.69999981  19.29999924  45.77000046
S    15.54999924  15.52999973  49.20999908
C    18.19000053  14.89999962  48.37999725
C    16.95999908  15.51000023  48.09000015
C    16.63999939  16.13999939  46.86000061
C    17.64000130  16.17000008  45.89000320
C    18.93000031  15.64000034  46.13999939
C    19.95000076  15.78999996  45.21999741
C    21.19999886  15.27999973  45.45000076
C    21.52000046  14.70000076  46.70999908
C    20.52999878  14.63999939  47.65999603
C    19.22999954  15.10000038  47.41000366
C    15.21999931  16.46999931  46.76000214
C    14.55999947  16.26000023  47.97999954
C    13.17999935  16.48999977  48.15000153
C    23.03999901  14.55000019  47.15999985
H    23.34900665  15.19610691  47.98168182
H    18.39999962  14.59000015  49.40000153
H    17.34000015  16.61000061  44.93999863
H    19.60000038  16.39000130  44.38000107
H    21.94000053  15.44999981  44.68000031
H    20.66999817  14.26000023  48.67000198
H    12.67000008  16.13000107  49.03999710
H    23.57999992  14.89999962  46.26999664
H    23.29000092  13.53000069  47.47000122
S    11.69999981  17.59000015  50.97000122
C     9.07999992  17.80999947  51.77000046
C    10.32999992  17.35000038  52.01000214
C    10.69000053  16.69999886  53.27999878
C     9.68000031  16.59000015  54.20000076
C     8.45000076  16.97999954  53.88000107
C     7.44000006  16.67000008  54.82999802
C     6.17999983  17.12000084  54.59000015
C     5.78999996  17.84000015  53.43999863
C     6.71999979  18.02999878  52.44999695
C     8.06999969  17.65999985  52.70000076
C    12.11999989  16.68000031  53.50999832
C    12.79000092  17.09000015  52.38999939
C    14.21000004  16.84999847  52.34000397
C     4.30000019  18.22999954  53.04999924
H     3.89126849  17.72260857  52.17616272
H     8.84000015  18.36000061  50.86999893
H     9.81999969  16.03999901  55.12000275
H     7.73000002  16.27000046  55.79000092
H     5.32999992  16.86000061  55.20999908
H     6.46000004  18.36000061  51.45000076
H    14.65000057  17.21999931  51.42000198
H     3.61000013  18.02999878  53.88000107
H     4.30999994  19.31999969  52.95999908
S    15.27999973  15.81999969  55.96000290
C    17.97000122  15.44000053  55.12000275
C    16.72999954  15.85999966  54.80999756
C    16.36999893  16.43000031  53.54999924
C    17.39999962  16.47999954  52.64999771
C    18.72999954  16.05999947  52.94000244
C    19.82999992  16.27000046  52.05999756
C    21.07999992  15.92000008  52.36000061
C    21.42000008  15.43000031  53.62999725
C    20.39999962  15.06999969  54.51000214
C    19.02000046  15.44999981  54.16999817
C    14.94999981  16.46999931  53.44999695
C    14.21000004  16.27000046  54.65000153
C    12.82999992  16.17000008  54.59999847
C    22.79000092  15.10000038  53.99000168
H    23.12255859  15.54341316  54.92855835
H    18.12999916  15.18000031  56.16000366
H    17.20999908  16.95000076  51.69000244
H    19.60000038  16.72999954  51.10000229
H    21.90999985  16.07999992  51.66999817
H    20.62000084  14.50000000  55.40999985
H    12.38999939  15.52000046  55.34999847
H    23.50000000  15.44999981  53.22999954
H    22.86000061  14.01999950  54.13000107
