96

S    12.35000038  16.72000122  44.20999908
C     9.67000008  17.07999992  45.00999832
C    10.95999908  16.63999939  45.31000137
C    11.36999989  16.20000076  46.58000183
C    10.39000034  16.10000038  47.54000092
C     9.04999924  16.53000069  47.29000092
C     8.01999950  16.54999924  48.29000092
C     6.78999996  16.88999939  48.00000000
C     6.39999962  17.40999985  46.70000076
C     7.42000008  17.67000008  45.83000183
C     8.71000004  17.07999992  46.03000259
C    12.76999950  16.13000107  46.72000122
C    13.50000000  16.31999969  45.54999924
C    14.88999939  16.18000031  45.47000122
C     4.94999981  17.77000046  46.40999603
H     4.69833088  17.23070908  45.49679947
H     9.44000053  17.47999954  44.02000046
H    10.57999992  15.67999935  48.53000259
H     8.34999943  16.18999863  49.27000046
H     5.95000029  16.65999985  48.64999771
H     7.22000027  18.17000008  44.87999725
H    15.50000000  16.32999992  44.58000183
H     4.28999996  17.61999893  47.28000259
H     4.79999971  18.85000038  46.23000336
S    16.06999969  15.51000023  49.15999985
C    18.65999985  14.92000008  48.34000015
C    17.39999962  15.31999969  47.94000244
C    17.02999878  15.67000008  46.59999847
C    18.02999878  15.78999996  45.63000107
C    19.37000084  15.44999981  45.97999954
C    20.48000145  15.47000027  45.10000229
C    21.70999908  15.00000000  45.40000153
C    21.97999954  14.80000019  46.81999969
C    21.02000046  14.84000015  47.80000305
C    19.67000008  15.07999992  47.36999893
C    15.57999992  15.93000031  46.63999939
C    14.88999939  15.85000038  47.84000015
C    13.50999928  15.90999985  47.90999985
C    23.43000031  14.45000076  47.18000031
H    23.66563606  14.74990177  48.20109558
H    19.00000000  14.68999958  49.34999847
H    17.70000076  16.14999962  44.65999985
H    20.36000061  15.76000023  44.06000137
H    22.55000114  15.00000000  44.71000290
H    21.27000046  14.63000107  48.83999634
H    12.93000031  15.88000107  48.82999802
H    24.04999924  15.01000023  46.46999741
H    23.61000061  13.38999939  46.95999908
S    16.18000031  12.86000061  52.21000290
C    18.76000023  12.46000099  51.19999695
C    17.43000031  12.34000015  51.05999756
C    16.84000015  11.78999996  49.86000061
C    17.72999954  11.39999962  48.82999802
C    19.13999939  11.47999954  48.95999908
C    20.13000107  10.95999908  48.00000000
C    21.42000008  10.88999939  48.29000092
C    21.86000061  11.28999901  49.59000015
C    20.95999908  11.85999966  50.45000076
C    19.60000038  11.95000076  50.20999908
C    15.39999962  12.02999973  49.79000092
C    14.92000008  12.55000019  50.98999786
C    13.63000011  12.98999977  51.11999893
C    23.26000023  11.03999996  50.02999878
H    23.56289101  11.46263981  50.98798370
H    19.23999977  12.84999943  52.09000015
H    17.30999947  11.00999928  47.90999985
H    19.71999931  10.65000057  47.04000092
H    22.18000031  10.54999924  47.58999634
H    21.21999931  12.32999992  51.39999771
H    13.38000107  13.69999981  51.90000153
H    23.31999969   9.94000053  50.07999802
H    23.95999908  11.39000034  49.26000214
S    11.98999977  11.97000027  47.62000275
C     9.40999985  12.69000053  48.56999969
C    10.76000023  12.67000008  48.70999908
C    11.33999920  13.17000008  49.95999908
C    10.53999996  13.66000080  50.93999863
C     9.15000057  13.76000023  50.77000046
C     8.28999996  14.28999996  51.79999924
C     6.90000010  14.29999924  51.55000305
C     6.42000008  13.86999989  50.31000137
C     7.22000027  13.28999996  49.31000137
C     8.61999989  13.25000000  49.54999924
C    12.77999973  12.81999969  50.05000305
C    13.26000023  12.22000027  48.80000305
C    14.60999966  11.84999943  48.67000198
C     4.97000027  14.27000046  49.93999863
H     4.72656441  13.81263638  48.98101044
H     8.85999966  12.25000000  47.74000168
H    10.95999908  14.00000000  51.88999939
H     8.75000000  14.63000107  52.71999741
H     6.21000004  14.80000019  52.22000122
H     6.81999969  12.86000061  48.40000153
H    14.98999977  11.51000023  47.70999908
H     4.81999969  15.34999943  49.91000366
H     4.26999998  13.90999985  50.70000076
