96

S    12.39999962  16.97999954  43.83999634
C     9.65999985  17.30999947  44.55999756
C    10.93999958  17.05999947  44.94999695
C    11.33999920  16.77000046  46.30000305
C    10.40999985  16.84999847  47.27000427
C     9.04999924  17.05000114  46.93000031
C     8.01999950  16.95999908  47.88999939
C     6.72999954  17.22999954  47.56999969
C     6.34000015  17.53000069  46.24000168
C     7.30000019  17.47999954  45.22999573
C     8.67000008  17.28999901  45.59000015
C    12.81000042  16.68000031  46.47999573
C    13.47000027  16.73999977  45.25000000
C    14.84000015  16.68000031  45.18000031
C     4.94000006  17.95999908  45.97000122
H     4.61203575  17.50370026  45.03601456
H     9.31999969  17.60000038  43.57999802
H    10.62000084  16.51000023  48.27999878
H     8.32999992  16.79000092  48.92000198
H     5.93999958  17.11000061  48.30999756
H     7.07000017  17.54999924  44.16999817
H    15.31999969  17.01000023  44.26000214
H     4.38000011  17.56000137  46.81999969
H     4.86999989  19.04999924  45.91999817
S    16.03000069  16.13000107  48.93000031
C    18.71000099  15.52000046  48.27999878
C    17.42000008  15.92000008  47.90000153
C    17.10000038  16.17000008  46.53999710
C    18.12000084  16.10999870  45.59000015
C    19.47999954  15.80000019  45.97000122
C    20.52999878  15.64000034  45.04000092
C    21.84000015  15.31000042  45.41999817
C    22.13999939  15.01000023  46.70000076
C    21.11999893  15.10000038  47.67000198
C    19.78999901  15.47999954  47.31999969
C    15.62000084  16.39999962  46.33999634
C    14.91000080  16.36000061  47.51999664
C    13.55000019  16.54999924  47.63999939
C    23.57000160  14.35999966  47.11000061
H    23.94625092  14.95921326  47.93914413
H    18.92000008  15.17000008  49.29000092
H    17.79000092  16.28999901  44.56999969
H    20.29999924  15.78999996  43.99000168
H    22.65999985  15.24000072  44.71000290
H    21.34000015  14.65999985  48.63999939
H    13.01000023  16.64999962  48.57999802
H    24.17000008  14.39000034  46.18999863
H    23.46999931  13.30999947  47.38999939
S    12.01000023  17.27000046  51.11000061
C     9.34000015  17.59000015  51.93000031
C    10.60999966  17.13000107  52.15000153
C    10.95000076  16.57999992  53.41999817
C     9.96000004  16.43000031  54.40999985
C     8.64000034  16.90000153  54.13000107
C     7.55999994  16.87000084  55.11000061
C     6.30999994  17.34000015  54.81999969
C     6.01000023  17.88999939  53.56999969
C     7.05999947  17.92000008  52.64999771
C     8.30999947  17.42000008  52.84999847
C    12.38999939  16.50000000  53.55999756
C    13.12999916  16.73999977  52.37999725
C    14.52000046  16.86000061  52.25999832
C     4.53000021  18.31999969  53.11000061
H     4.16096592  17.73511505  52.26749039
H     9.03999996  18.07999992  51.00999832
H    10.11999989  15.85000038  55.31999969
H     7.90999985  16.56999969  56.10000229
H     5.52999973  17.18000031  55.56000137
H     6.84000015  18.30000114  51.65000153
H    14.98999977  17.00000000  51.29000092
H     3.86000013  18.30000114  53.97999573
H     4.63999987  19.36000061  52.80000305
S    15.57000065  16.13000107  55.93000031
C    18.22000122  15.76000023  55.13999939
C    16.97000122  16.10000038  54.81999969
C    16.68000031  16.53000069  53.50000000
C    17.63000107  16.61000061  52.45999908
C    18.92000008  16.18999863  52.77000046
C    19.92000008  16.00000000  51.77999878
C    21.09000015  15.32999992  52.08000183
C    21.35999870  14.92000008  53.37999725
C    20.43999863  15.08999920  54.36000061
C    19.22000122  15.71000004  54.09999847
C    15.21000004  16.70999908  53.40000153
C    14.48999977  16.52000046  54.61999893
C    13.14000034  16.47999954  54.69999695
C    22.76000023  14.63999939  53.81000137
H    23.07308960  15.20925426  54.68523026
H    18.40999985  15.29000092  56.10000229
H    17.30999947  16.76000023  51.43000031
H    19.77000046  16.21000099  50.72000122
H    21.83000183  15.14999962  51.30000305
H    20.73999786  14.93999958  55.38999939
H    12.57999992  16.54000092  55.63000107
H    23.51000023  14.81999969  53.02999878
H    22.79000092  13.53999996  53.88999939
