96

S    12.41000080  16.67000008  44.18000031
C     9.72999954  17.14999962  44.93999863
C    10.98000050  16.64999962  45.22999573
C    11.32999992  16.15999985  46.51000214
C    10.34999943  15.98000050  47.45999908
C     9.06999969  16.62999916  47.29000092
C     8.05999947  16.72999954  48.26000214
C     6.76999998  17.00000000  47.95999908
C     6.50000000  17.54999924  46.72000122
C     7.44000006  17.61000061  45.76000214
C     8.71000004  17.11000061  45.97000122
C    12.82999992  16.09000015  46.68000031
C    13.50000000  16.10000038  45.43000031
C    14.89999962  16.11999893  45.34000015
C     5.03999996  17.71999931  46.31000137
H     4.70610380  17.01591492  45.54784775
H     9.50000000  17.79999924  44.09999847
H    10.44999981  15.47000027  48.40999985
H     8.38000011  16.31999969  49.20999908
H     6.01999998  16.90999985  48.74000168
H     7.22000027  18.07999992  44.79999924
H    15.44999981  16.23999977  44.40999985
H     4.48000002  17.61999893  47.23999786
H     4.90999985  18.73999977  45.93000031
S    16.03999901  15.81999969  49.15999985
C    18.55999947  15.15999985  48.56999969
C    17.35999870  15.57999992  48.11999893
C    17.05000114  15.85999966  46.72000122
C    18.09999847  15.85999966  45.84000015
C    19.45999908  15.57000065  46.31000137
C    20.52999878  15.51000023  45.35999680
C    21.78999901  15.01999950  45.77999878
C    21.93000031  14.59000015  47.15999985
C    20.95000076  14.70000076  48.06999969
C    19.67000008  15.14999962  47.68000031
C    15.60999966  16.09000015  46.56999969
C    14.89999962  16.06999969  47.80000305
C    13.50999928  16.06999969  47.88999939
C    23.22999954  14.11000061  47.56000137
H    23.55252457  14.83918953  48.30321121
H    18.73999977  14.88000011  49.61000061
H    17.93000031  15.98999977  44.78000259
H    20.39999962  15.78999996  44.31999969
H    22.56999969  14.75999928  45.06999969
H    21.15999985  14.50000000  49.12000275
H    12.90999985  16.18000031  48.79000092
H    23.88999939  14.01000023  46.68000031
H    23.09000015  13.10999966  47.97000122
S    16.07999992  13.19000053  52.18999863
C    18.63000107  12.42000008  51.51000214
C    17.23999977  12.39999962  51.25000000
C    16.68000031  11.87000084  50.05000305
C    17.54999924  11.28999901  49.13000107
C    18.96999931  11.39000034  49.27999878
C    19.85999870  10.75000000  48.36999893
C    21.18000031  10.54999924  48.72000122
C    21.73000145  11.14999962  49.93000031
C    20.85000038  11.73999977  50.79000092
C    19.48999977  11.90000057  50.52000046
C    15.29999924  12.07999992  49.86999893
C    14.77000046  12.82999992  50.97000122
C    13.45000076  13.28999996  51.02000427
C    23.12000084  10.77000046  50.44000244
H    23.33706856  11.27150249  51.38312531
H    18.98999977  12.88000011  52.42000198
H    17.15999985  10.82999992  48.22000122
H    19.43000031  10.14000034  47.57999802
H    21.80999947   9.88000011  48.13999939
H    21.14999962  11.97000027  51.79999924
H    12.94000053  13.43000031  51.95999908
H    23.12999916   9.68000031  50.54999924
H    23.82999802  10.98000050  49.64000320
S    11.84999943  11.44999981  47.83000183
C     9.38000011  12.55000019  48.40999985
C    10.69000053  12.38000011  48.70999908
C    11.28999901  13.04999924  49.82999802
C    10.39000034  13.50000000  50.76000214
C     8.98999977  13.53000069  50.54000092
C     7.95000029  13.99000072  51.44000244
C     6.58999968  13.89000034  51.20999908
C     6.11000013  13.61999989  49.86000061
C     7.07000017  13.20000076  48.96999741
C     8.43999958  13.07000065  49.31999969
C    12.68000031  12.93000031  49.87999725
C    13.15999985  12.13999939  48.85000229
C    14.45000076  11.64000034  48.81999969
C     4.72000027  14.00000000  49.56999969
H     4.45868397  13.83495903  48.52473450
H     8.93999958  12.15000057  47.50999832
H    10.84000015  13.94999981  51.63999939
H     8.27000046  14.42000008  52.38999939
H     5.93999958  14.35999966  51.93999863
H     6.81999969  12.97999954  47.93000031
H    14.85999966  11.00999928  48.02999878
H     4.55999994  15.03999901  49.87999725
H     4.05000019  13.35999966  50.15999603
