96

S    12.31999969  17.01000023  44.06000137
C     9.67000008  17.54999924  44.73999786
C    10.88999939  17.04000092  45.08999634
C    11.28999901  16.77999878  46.45999908
C    10.32999992  16.84999847  47.43999863
C     9.06999969  17.34000015  47.08000183
C     8.01999950  17.39999962  48.08000183
C     6.74000025  17.73999977  47.67000198
C     6.46000004  18.09000015  46.33999634
C     7.46999979  18.11000061  45.43000031
C     8.78999996  17.70000076  45.76000214
C    12.69999981  16.61000061  46.62000275
C    13.43000031  16.80999947  45.44000244
C    14.78999996  16.61000061  45.41999817
C     4.96000004  18.30000114  45.90999985
H     4.68143511  17.59625816  45.12562180
H     9.44000053  17.94000053  43.75000000
H    10.44000053  16.25000000  48.34000015
H     8.23999977  17.06999969  49.09999847
H     5.95000029  17.72999954  48.41999817
H     7.37999964  18.27999878  44.36000061
H    15.27999973  16.44000053  44.45999908
H     4.33999968  18.20999908  46.81000137
H     4.96000004  19.30999947  45.47999954
S    15.70000076  15.69000053  49.20999908
C    18.38999939  15.31000042  48.47000122
C    17.11000061  15.69000053  48.11999893
C    16.77999878  16.13999939  46.76000214
C    17.73999977  16.21000099  45.80999756
C    19.04999924  15.85000038  46.18000031
C    20.03999901  15.75000000  45.15999603
C    21.30000114  15.34000015  45.45999908
C    21.63999939  14.96999931  46.77999878
C    20.69000053  14.98999977  47.75000000
C    19.37000084  15.36000061  47.47000122
C    15.39999962  16.28000069  46.60999680
C    14.70999908  16.18000031  47.83000183
C    13.35000038  16.28999901  47.87000275
C    23.02999878  14.52000046  47.12999725
H    23.27979469  14.83402824  48.14345169
H    18.67000008  14.86999989  49.41999817
H    17.54999924  16.39000130  44.75999832
H    19.78000069  16.14999962  44.18000031
H    22.06999969  15.36000061  44.68999863
H    20.92000008  14.73999977  48.79000092
H    12.75000000  16.46000099  48.75999832
H    23.71999931  14.98000050  46.40999603
H    23.16999817  13.45000076  46.93000031
S    15.90999985  13.04999924  52.12999725
C    18.53999901  12.51999950  51.40999603
C    17.22999954  12.41000080  51.07999802
C    16.72999954  12.10000038  49.80999756
C    17.64000130  11.77000046  48.81999969
C    19.01000023  11.78999996  49.08000183
C    20.03000069  11.38000011  48.20000076
C    21.31999969  11.17000008  48.61999893
C    21.76000214  11.54000092  49.86000061
C    20.86000061  12.11999989  50.73999786
C    19.45999908  12.18999958  50.43000031
C    15.32999992  12.35000038  49.71000290
C    14.77000046  12.94999981  50.80999756
C    13.50000000  13.45999908  50.86000061
C    23.22999954  11.23000050  50.25000000
H    23.48121452  11.52749157  51.26808167
H    18.76000023  12.81000042  52.43999863
H    17.25000000  11.52999973  47.84000015
H    19.76000023  11.21000099  47.15999985
H    22.06999969  10.60999966  48.04999924
H    21.14999962  12.38999939  51.75000000
H    13.15000057  13.82999992  51.81999969
H    23.34000015  10.14000034  50.14999771
H    23.81000137  11.69000053  49.45000076
S    12.02999973  12.61000061  47.30999756
C     9.34000015  13.28999996  48.04999924
C    10.72000027  13.28999996  48.34000015
C    11.26999950  13.52000046  49.62999725
C    10.31000042  13.81999969  50.65000153
C     8.89999962  13.86000061  50.41999817
C     7.97999954  14.35999966  51.44000244
C     6.67999983  14.59000015  51.11000061
C     6.15000010  14.27999973  49.81999969
C     6.97000027  13.76999950  48.85000229
C     8.38999939  13.59000015  49.09999847
C    12.69000053  13.30000019  49.75000000
C    13.19000053  12.69999981  48.56999969
C    14.52999973  12.28000069  48.53000259
C     4.85000038  14.86999989  49.38999939
H     4.52134514  14.37336636  48.47706985
H     9.03999996  13.12000084  47.02000046
H    10.76000023  14.17000008  51.58000183
H     8.34000015  14.73000050  52.38999939
H     6.07999992  15.03999901  51.90000153
H     6.80999994  13.89999962  47.78999710
H    15.00000000  11.92000008  47.63000107
H     4.90999985  15.93999958  49.16999817
H     4.09999990  14.65000057  50.17000198
