96

S    12.23999977  17.23999977  44.15000153
C     9.57999992  17.50000000  44.78000259
C    10.77000046  17.05999947  45.18000031
C    11.10999966  16.53000069  46.46999741
C    10.00000000  16.40999985  47.36000061
C     8.75000000  16.87000084  47.01000214
C     7.67000008  16.87000084  47.97999954
C     6.51999998  17.50000000  47.74000168
C     6.23000050  17.94999886  46.45000076
C     7.23000002  18.02999878  45.45999908
C     8.51000023  17.52000046  45.76000214
C    12.55000019  16.45000076  46.66999817
C    13.25000000  16.72000122  45.48999786
C    14.65999985  16.81999969  45.41999817
C     4.86999989  18.23999977  46.12999725
H     4.52159834  17.60590935  45.31473923
H     9.42000008  17.89999962  43.77999878
H    10.14000034  16.22999954  48.41999817
H     7.90000010  16.38000107  48.93000031
H     5.68000031  17.46999931  48.43000031
H     6.96000004  18.38000107  44.45999908
H    15.08999920  16.87999916  44.41999817
H     4.23999977  18.00000000  47.00000000
H     4.56999969  19.27000046  45.93000031
S    15.72999954  15.90999985  49.15999985
C    18.31999969  15.19000053  48.34000015
C    17.11000061  15.84000015  48.09999847
C    16.77000046  16.31000137  46.79999924
C    17.79999924  16.31999969  45.90999985
C    19.04999924  15.81999969  46.12999725
C    20.17000008  15.95000076  45.18000031
C    21.42999840  15.47999954  45.52000046
C    21.70000076  14.85999966  46.77000046
C    20.69999886  14.70000076  47.68000031
C    19.38999939  15.26999950  47.43000031
C    15.36000061  16.53000069  46.62000275
C    14.63000107  16.22999954  47.81000137
C    13.22999954  16.21999931  47.84999847
C    23.18000031  14.63999939  47.11999893
H    23.51828575  15.20141029  47.99090576
H    18.45000076  14.65000057  49.27999878
H    17.67000008  16.90999985  45.00000000
H    20.17000008  16.46999931  44.22999954
H    22.26000023  15.46000004  44.81999969
H    20.86999893  14.27999973  48.66000366
H    12.68000031  15.90000057  48.74000168
H    23.80000114  15.00000000  46.29000092
H    23.34000015  13.55999947  47.21000290
S    11.64000034  17.06999969  50.86000061
C     8.93000031  17.65999985  51.53999710
C    10.14999962  17.02000046  51.79999924
C    10.47999954  16.52000046  53.13999939
C     9.47000027  16.59000015  54.10999680
C     8.15999985  17.06999969  53.81000137
C     7.03999996  16.97000122  54.72000122
C     5.84999990  17.38000107  54.38000107
C     5.63000011  18.02999878  53.20000076
C     6.63000011  18.15000153  52.23999786
C     7.95000029  17.60000038  52.51999664
C    11.92000008  16.26000023  53.29999924
C    12.63000011  16.59000015  52.14000320
C    14.00000000  16.62999916  52.06999969
C     4.28999996  18.56999969  52.83000183
H     3.94851351  18.15025520  51.88379669
H     8.86999989  18.22999954  50.61999893
H     9.56999969  16.14999962  55.10000229
H     7.31999969  16.36999893  55.58000183
H     5.07999992  17.26000023  55.13999939
H     6.43000031  18.78000069  51.37000275
H    14.34000015  17.04000092  51.11999893
H     3.61999989  18.38999939  53.68000031
H     4.32999992  19.65999985  52.84999847
S    15.07999992  15.75000000  55.76000214
C    17.78000069  15.54999924  55.13999939
C    16.52000046  15.90000057  54.72999954
C    16.20000076  16.23999977  53.40999985
C    17.23999977  16.47999954  52.52999878
C    18.56999969  16.14999962  52.90999985
C    19.69000053  16.13000107  52.00000000
C    20.98999977  15.84000015  52.36000061
C    21.24000168  15.42000008  53.68999863
C    20.13000107  15.18000031  54.47999954
C    18.84000015  15.67999935  54.20999908
C    14.70999908  16.28000069  53.20999908
C    14.01999950  15.95999908  54.38999939
C    12.61000061  15.97000027  54.43000031
C    22.60999870  15.01999950  54.05000305
H    22.93010521  15.63110733  54.89390945
H    18.02000046  15.14999962  56.11999893
H    17.05999947  16.79000092  51.50000000
H    19.42000008  16.51000023  51.02000427
H    21.83000183  15.98000050  51.68000031
H    20.22000122  14.46000004  55.28999710
H    12.20000076  15.78999996  55.41999817
H    23.32999992  15.06999969  53.22000122
H    22.53999901  13.96999931  54.36000061
