96

S    12.51000023  17.21999931  44.52999878
C     9.90999985  17.75000000  45.13000107
C    11.13000011  17.31999969  45.56000137
C    11.31999969  16.87000084  46.84999847
C    10.27999973  16.84000015  47.70000076
C     9.04999924  17.38999939  47.32999802
C     7.90999985  17.28999901  48.16999817
C     6.67000008  17.64000130  47.63999939
C     6.42000008  18.25000000  46.39999771
C     7.49000025  18.27999878  45.52999878
C     8.80000019  17.79999924  46.00999832
C    12.77999973  16.52000046  47.04000092
C    13.52000046  16.79999924  45.90999985
C    14.88000011  16.90000153  45.81999969
C     5.03999996  18.51000023  45.89000320
H     4.69523001  17.94974899  45.02089310
H     9.85999966  18.22999954  44.15000153
H    10.26000023  16.35000038  48.67000198
H     8.09000015  16.94000053  49.18000031
H     5.79999971  17.57999992  48.27999878
H     7.44999981  18.37000084  44.45000076
H    15.21999931  16.98999977  44.79000092
H     4.33999968  18.27000046  46.70000076
H     4.94000006  19.56999969  45.61999893
S    15.88999939  15.85999966  49.38999939
C    18.60000038  15.44000053  48.74000168
C    17.35000038  15.80999947  48.34000015
C    16.97999954  16.21999931  47.04000092
C    17.97999954  16.21999931  46.11000061
C    19.29999924  15.77000046  46.40999603
C    20.36999893  15.77000046  45.45999908
C    21.63000107  15.29000092  45.86999893
C    21.87000084  15.03000069  47.18999863
C    20.93000031  15.14999962  48.15999985
C    19.59000015  15.39000034  47.72999573
C    15.59000015  16.60000038  46.93999863
C    14.88999939  16.36999893  48.11999893
C    13.50999928  16.35000038  48.23999786
C    23.31999969  14.55000019  47.43999863
H    23.76375771  14.98648453  48.33479309
H    18.71999931  15.10000038  49.77000427
H    17.86999893  16.64999962  45.11000061
H    20.27000046  16.28999901  44.51000214
H    22.34999847  15.03999901  45.08999634
H    21.11000061  14.96000099  49.20999908
H    13.04999924  16.25000000  49.22000122
H    23.81000137  14.73000050  46.46999741
H    23.42000008  13.45999908  47.51999664
S    11.72000027  17.76000023  50.93999863
C     9.15000057  18.20000076  51.88000107
C    10.39000034  17.63000107  52.02999878
C    10.75000000  17.01000023  53.20000076
C     9.81000042  16.77999878  54.13000107
C     8.43999958  17.18000031  53.95000076
C     7.36999989  17.02000046  54.86999893
C     6.10000038  17.50000000  54.62999725
C     5.86000013  18.09000015  53.37999725
C     6.81999969  18.34000015  52.49000168
C     8.13000011  17.92000008  52.77999878
C    12.15999985  16.86000061  53.34000015
C    12.82999992  17.14999962  52.16999817
C    14.19999981  17.07999992  52.09999847
C     4.51999998  18.52000046  52.95999908
H     4.25664425  18.08839035  51.99436188
H     8.97000027  18.90999985  51.06999969
H    10.06000042  16.31000137  55.07999802
H     7.59000015  16.45000076  55.77000046
H     5.32000017  17.43999863  55.38000107
H     6.65000010  18.86999893  51.56000137
H    14.68000031  17.46999931  51.19999695
H     3.81000018  18.12999916  53.69999695
H     4.33999968  19.60000038  52.91999817
S    15.14999962  15.71000004  55.68999863
C    17.87999916  15.31000042  54.92000198
C    16.62999916  15.80000019  54.65000153
C    16.35000038  16.54000092  53.40999985
C    17.38000107  16.76000023  52.56999969
C    18.65999985  16.28999901  52.78999710
C    19.64999962  16.28999901  51.77000046
C    20.84000015  15.62999916  51.97000122
C    21.15999985  14.98999977  53.22999954
C    20.22000122  14.88999939  54.22999954
C    18.94000053  15.52999973  53.97999573
C    14.93000031  16.65999985  53.22000122
C    14.21000004  16.35000038  54.45000076
C    12.84999943  16.46000099  54.47999954
C    22.59000015  14.60000038  53.50000000
H    22.88996887  14.92089653  54.49757004
H    18.02000046  14.65000057  55.77000046
H    17.09000015  17.13999939  51.59000015
H    19.50000000  16.79000092  50.81999969
H    21.64999962  15.72000027  51.25000000
H    20.45000076  14.42999935  55.19000244
H    12.25000000  16.14999962  55.33000183
H    23.26000023  15.11000061  52.80000305
H    22.88000107  13.55999947  53.27000046
