96

S    12.15999985  16.81999969  44.09999847
C     9.44999981  17.25000000  44.93999863
C    10.76000023  16.92000008  45.22999573
C    11.10999966  16.68000031  46.63000107
C    10.18000031  16.60000038  47.62000275
C     8.82999992  16.97999954  47.30999756
C     7.73999977  16.88999939  48.18000031
C     6.48999977  17.18000031  47.95000076
C     6.11000013  17.51000023  46.60999680
C     7.03999996  17.56000137  45.66999817
C     8.40999985  17.29999924  45.93999863
C    12.55000019  16.34000015  46.68000031
C    13.22000027  16.46999931  45.43000031
C    14.57999992  16.60000038  45.44000244
C     4.67000008  17.86000061  46.31000137
H     4.35037422  17.45196724  45.35112381
H     9.21000004  17.59000015  43.93000031
H    10.44999981  16.31000137  48.63999939
H     8.05000019  16.52000046  49.15999985
H     5.72000027  17.27000046  48.70999908
H     6.70000029  17.89999962  44.68999863
H    15.03000069  16.81999969  44.47000122
H     4.13999987  17.47999954  47.18999863
H     4.63000011  18.95000076  46.24000168
S    15.73999977  15.71000004  49.15000153
C    18.47999954  15.71000004  48.44999695
C    17.17000008  16.01000023  48.08000183
C    16.79999924  16.32999992  46.70999908
C    17.77000046  16.25000000  45.72999954
C    19.10000038  15.93999958  46.06999969
C    20.07999802  15.80999947  45.13000107
C    21.38000107  15.26999950  45.38999939
C    21.67000008  14.86999989  46.72000122
C    20.78000069  14.98000050  47.69000244
C    19.47999954  15.57999992  47.42000198
C    15.31999969  16.43000031  46.60999680
C    14.65999985  16.13000107  47.84000015
C    13.30000019  16.15999985  47.85999680
C    23.02000046  14.42000008  47.11000061
H    23.25137138  14.79860878  48.10560226
H    18.64999962  15.48999977  49.50000000
H    17.50000000  16.53000069  44.72000122
H    19.75000000  16.11999893  44.13999939
H    22.15999985  15.38000011  44.64000320
H    20.90999985  14.65999985  48.72000122
H    12.79999924  16.06999969  48.82999802
H    23.68999863  14.96000099  46.43000031
H    23.05000114  13.31999969  47.11000061
S    15.88000107  13.28999996  52.19999695
C    18.54999924  12.69999981  51.40999603
C    17.19000053  12.71000004  51.13999939
C    16.70999908  12.36999989  49.80999756
C    17.57999992  11.92000008  48.90999603
C    18.96999931  11.76000023  49.22000122
C    19.92000008  11.18999958  48.18999863
C    21.28999901  11.10000038  48.47999954
C    21.77000046  11.47999954  49.78000259
C    20.92000008  12.18999958  50.65999985
C    19.52999878  12.22000027  50.47000122
C    15.29000092  12.58999920  49.61999893
C    14.70000076  13.04999924  50.86999893
C    13.32999992  13.38000107  50.93000031
C    23.22000122  11.11999989  50.13000107
H    23.39766121  11.19106388  51.20307541
H    18.89999962  13.17000008  52.32999802
H    17.23999977  11.56999969  47.94000244
H    19.45000076  10.93999958  47.22999954
H    21.90000153  10.60999966  47.72999573
H    21.31000137  12.53000069  51.62000275
H    12.96000004  13.57999992  51.93000031
H    23.54000092  10.14999962  49.75000000
H    23.88999939  11.85999966  49.68000031
S    11.95000076  12.67000008  47.19999695
C     9.30999947  13.14000034  47.95000076
C    10.62000084  12.97000027  48.29000092
C    11.07999992  13.31999969  49.61000061
C    10.25000000  13.69999981  50.59000015
C     8.88000011  13.85000038  50.27000046
C     7.94000053  14.25000000  51.25000000
C     6.63999987  14.42000008  50.84999847
C     6.28999996  14.30999947  49.52000046
C     7.11000013  13.80000019  48.54000092
C     8.43999958  13.63000011  48.90999603
C    12.53999901  13.22000027  49.77000427
C    13.15000057  12.89000034  48.53000259
C    14.52000046  12.53000069  48.47999954
C     4.86999989  14.53999996  49.15000153
H     4.64934826  14.10581493  48.17486191
H     8.89000034  12.94000053  46.97000122
H    10.62999916  13.83999920  51.59999847
H     8.10999966  14.32000065  52.31999969
H     5.86999989  14.61999989  51.59000015
H     6.80000019  13.53000069  47.52999878
H    14.98999977  12.28000069  47.54000092
H     4.56999969  15.59000015  49.25000000
H     4.19000006  14.11999893  49.88999939
