96

S    12.07999992  17.46999931  44.19000244
C     9.34000015  17.94999886  44.75999832
C    10.57999992  17.46999931  45.13000107
C    10.86999989  16.87000084  46.42000198
C     9.90999985  16.79000092  47.36000061
C     8.64000034  17.22999954  47.02000046
C     7.59000015  17.01000023  47.95000076
C     6.34000015  17.47999954  47.70999908
C     6.05999994  18.02000046  46.44000244
C     6.97000027  18.15999985  45.45999908
C     8.30999947  17.77000046  45.72999954
C    12.28000069  16.62999916  46.63000107
C    13.09000015  16.90000153  45.50000000
C    14.44000053  16.69000053  45.40999985
C     4.61999989  18.32999992  46.07999802
H     4.24010658  17.71267319  45.26594162
H     9.26999950  18.30000114  43.74000168
H    10.00000000  16.35000038  48.34999847
H     7.85000038  16.61000061  48.93000031
H     5.50000000  17.46000099  48.39000320
H     6.86999989  18.57999992  44.47000122
H    14.91000080  16.77999878  44.43000031
H     3.91000009  18.25000000  46.90999985
H     4.65000010  19.38999939  45.77999878
S    15.26000023  15.72999954  49.15000153
C    17.86999893  15.24000072  48.54000092
C    16.64999962  15.72000027  48.13999939
C    16.45000076  16.22999954  46.83000183
C    17.50000000  16.28000069  45.90999985
C    18.76000023  15.90999985  46.31999969
C    19.88999939  16.02000046  45.47000122
C    21.09000015  15.57000065  45.83000183
C    21.31999969  14.94999981  47.09999847
C    20.29999924  14.84000015  48.02000046
C    18.96999931  15.36999893  47.69000244
C    15.06999969  16.45000076  46.58000183
C    14.27999973  16.21000099  47.75000000
C    12.90999985  16.18000031  47.70999908
C    22.70999908  14.40000057  47.42000198
H    23.26971054  14.98769665  48.14762497
H    17.95999908  14.73000050  49.48999786
H    17.28999901  16.56999969  44.87999725
H    19.70000076  16.29999924  44.43999863
H    21.91999817  15.60999966  45.13000107
H    20.46999931  14.29999924  48.95000076
H    12.38000011  15.71000004  48.53000259
H    23.25000000  14.37999916  46.45999908
H    22.69000053  13.38999939  47.84000015
S    15.95000076  12.82999992  52.36000061
C    18.63000107  12.17000008  51.66999817
C    17.32999992  12.32999992  51.32999802
C    16.88999939  12.18999958  49.95999908
C    17.75000000  11.80999947  48.96999741
C    19.10000038  11.61999893  49.29999924
C    20.07999802  11.39999962  48.31999969
C    21.45000076  11.28999901  48.63999939
C    21.93000031  11.44000053  50.00000000
C    20.97999954  11.73999977  50.93999863
C    19.55999947  11.84000015  50.63999939
C    15.44999981  12.39999962  49.80999756
C    14.86999989  12.90999985  51.00000000
C    13.55999947  13.30999947  51.04000092
C    23.40999985  11.18999958  50.30000305
H    23.68588257  11.56026363  51.28736877
H    19.06999969  12.44999981  52.63000107
H    17.36999893  11.61000061  47.97000122
H    19.76000023  11.31999969  47.29000092
H    22.15999985  10.90999985  47.90999985
H    21.21999931  11.94000053  51.97999954
H    13.26000023  13.89000034  51.90999985
H    23.55999947  10.11000061  50.21999741
H    24.01000023  11.61999893  49.48999786
S    12.15000057  12.28000069  47.49000168
C     9.57999992  13.22999954  48.04999924
C    10.90999985  13.10999966  48.41999817
C    11.31999969  13.38999939  49.71000290
C    10.36000061  13.81999969  50.56999969
C     9.06000042  14.09999943  50.17000198
C     8.14000034  14.46000004  51.12999725
C     6.84000015  14.48999977  50.75000000
C     6.35999966  14.17000008  49.43999863
C     7.30000019  13.68000031  48.54000092
C     8.64000034  13.76000023  48.88000107
C    12.68000031  12.98999977  49.93999863
C    13.26000023  12.51000023  48.81000137
C    14.61999989  12.22000027  48.70999908
C     4.88000011  14.13000011  49.09999847
H     4.69505739  13.81929684  48.07171631
H     9.17000008  12.90999985  47.09000015
H    10.59999943  13.76999950  51.63000107
H     8.38000011  14.56999969  52.18999863
H     6.10000038  14.68000031  51.52000046
H     7.00999975  13.31999969  47.56000137
H    15.10000038  11.87999916  47.80000305
H     4.42999983  15.11999989  49.20999908
H     4.30000019  13.56999969  49.84000397
