96

S    12.10999966  16.51000023  44.13000107
C     9.44999981  17.04000092  44.92000198
C    10.77999973  16.63999939  45.25000000
C    11.11999989  16.18000031  46.56999969
C    10.14000034  16.18999863  47.55000305
C     8.80000019  16.55999947  47.28000259
C     7.85000038  16.92000008  48.27000046
C     6.67000008  17.32999992  47.87000275
C     6.21000004  17.38000107  46.51000214
C     7.13999987  17.35000038  45.52000046
C     8.48999977  16.97000122  45.86000061
C    12.50000000  15.98000050  46.66999817
C    13.25000000  16.18000031  45.41999817
C    14.65000057  16.18000031  45.34999847
C     4.73000002  17.76000023  46.25000000
H     4.29224491  17.14714241  45.46204376
H     9.26999950  17.28999901  43.88000107
H    10.53999996  16.06999969  48.54999924
H     8.10999966  16.75000000  49.31999969
H     5.96000004  17.54999924  48.66000366
H     6.89000034  17.81999969  44.56999969
H    15.11000061  16.44000053  44.40000153
H     4.25000000  17.59000015  47.22000122
H     4.59999990  18.82999992  46.04000092
S    15.62999916  15.19999981  48.95999908
C    18.37000084  15.07999992  48.25000000
C    17.13000107  15.38000011  47.95000076
C    16.76000023  15.86999989  46.69000244
C    17.64999962  16.13000107  45.72000122
C    18.96000099  15.76000023  45.97000122
C    19.96999931  15.81999969  45.00000000
C    21.27000046  15.53999996  45.35999680
C    21.65999985  15.03000069  46.70000076
C    20.69999886  14.80000019  47.58999634
C    19.36000061  15.22999954  47.25000000
C    15.34999943  15.95999908  46.52999878
C    14.56999969  15.67000008  47.65999603
C    13.23999977  15.67000008  47.80000305
C    23.12000084  14.80000019  46.97000122
H    23.38527107  15.05810165  47.99523926
H    18.55999947  14.45000076  49.12000275
H    17.38999939  16.32999992  44.68999863
H    19.76000023  16.17000008  43.99000168
H    22.06999969  15.67999935  44.64000320
H    20.84000015  14.44000053  48.60000229
H    12.76999950  15.51000023  48.76999664
H    23.80000114  15.24000072  46.23000336
H    23.31999969  13.73000050  46.88000107
S    11.69999981  17.17000008  51.10000229
C     9.13999939  17.51000023  51.98999786
C    10.36999893  16.97000122  52.25000000
C    10.75000000  16.59000015  53.53000259
C     9.75000000  16.51000023  54.51000214
C     8.43000031  16.92000008  54.22000122
C     7.36000013  16.64999962  55.10000229
C     6.09000015  16.98999977  54.79000092
C     5.78000021  17.53999901  53.54000092
C     6.83000040  17.70000076  52.65999603
C     8.14999962  17.40999985  52.94000244
C    12.23000050  16.48999977  53.68000031
C    12.92000008  16.72000122  52.44999695
C    14.34000015  16.55999947  52.30999756
C     4.35999966  17.98999977  53.16999817
H     3.99160576  17.43740845  52.30569077
H     8.89000034  18.00000000  51.05999756
H     9.94999981  16.13000107  55.50000000
H     7.63999987  16.26000023  56.07999802
H     5.31000042  16.95999908  55.54999924
H     6.52999973  17.95999908  51.65000153
H    14.82999992  16.62999916  51.33999634
H     3.68999982  17.90999985  54.02999878
H     4.32000017  19.05999947  52.93000031
S    15.44999981  15.81999969  56.04000092
C    18.15999985  15.21000004  55.31000137
C    16.87000084  15.59000015  54.92000198
C    16.47999954  15.97000027  53.56999969
C    17.43000031  15.93000031  52.58999634
C    18.79999924  15.55999947  52.84999847
C    19.85000038  15.78999996  51.93000031
C    21.14999962  15.47000027  52.29000092
C    21.42999840  14.96999931  53.56999969
C    20.48999977  14.86999989  54.47999954
C    19.13999939  15.26000023  54.25000000
C    15.06000042  16.21000099  53.41999817
C    14.39000034  16.14999962  54.68999863
C    13.01000023  16.25000000  54.79000092
C    22.93999863  14.78000069  54.00000000
H    23.01543999  15.30808067  54.95054626
H    18.47999954  14.73999977  56.24000168
H    17.06999969  16.11999893  51.58000183
H    19.51000023  16.17000008  50.97000122
H    21.98999786  15.59000015  51.60999680
H    20.65000153  14.60000038  55.52000046
H    12.56999969  16.15999985  55.77000046
H    23.61000061  15.17000008  53.22000122
H    23.11000061  13.69999981  54.08000183
