96

S    12.05999947  17.17000008  44.02000046
C     9.50000000  17.86999893  44.85000229
C    10.71000004  17.28999901  45.12000275
C    11.06999969  16.77000046  46.38000107
C    10.14000034  16.69999886  47.36999893
C     8.78000069  17.20999908  47.15999985
C     7.75000000  17.09000015  48.09999847
C     6.48999977  17.51000023  47.80000305
C     6.15999985  18.11000061  46.58000183
C     7.14999962  18.27999878  45.59999847
C     8.47999954  17.82999992  45.86999893
C    12.48000050  16.56999969  46.38999939
C    13.17000008  16.57999992  45.22999573
C    14.53999996  16.59000015  45.17000198
C     4.71000004  18.31999969  46.29000092
H     4.37303305  17.77511787  45.40815353
H     9.25000000  18.13999939  43.82999802
H    10.31999969  16.20000076  48.30999756
H     7.92000008  16.59000015  49.05000305
H     5.60999966  17.35999870  48.40999985
H     6.91999960  18.53999901  44.56999969
H    15.00000000  16.86000061  44.22000122
H     4.09000015  17.90999985  47.09000015
H     4.39000034  19.37000084  46.20999908
S    15.62999916  15.95000076  48.94000244
C    18.35000038  15.77000046  48.29000092
C    17.05000114  16.07999992  47.97000122
C    16.77000046  16.22999954  46.59999847
C    17.73999977  16.18999863  45.65999985
C    19.05999947  15.72999954  45.96000290
C    20.06999969  15.50000000  45.00000000
C    21.35000038  15.13000011  45.40999985
C    21.60000038  15.03999901  46.79000092
C    20.59999847  15.21000004  47.72999573
C    19.30999947  15.57000065  47.36999893
C    15.31000042  16.36999893  46.32999802
C    14.61999989  16.21000099  47.50000000
C    13.20000076  16.39000130  47.57999802
C    22.93999863  14.60000038  47.29999924
H    23.15314674  15.15859604  48.21139145
H    18.52000046  15.39000034  49.29000092
H    17.46000099  16.32999992  44.61999893
H    19.84000015  15.64000034  43.94000244
H    22.11999893  14.70000076  44.78000259
H    20.84000015  15.15999985  48.79000092
H    12.76999950  16.35000038  48.57999802
H    23.61999893  14.93999958  46.50000000
H    23.05999947  13.52000046  47.43000031
S    15.98999977  13.26000023  52.19999695
C    18.53000069  12.46000099  51.42000198
C    17.21999931  12.51999950  51.13999939
C    16.76000023  12.23000050  49.86999893
C    17.67000008  11.72999954  48.96999741
C    19.04999924  11.72999954  49.18000031
C    19.96999931  11.09000015  48.27999878
C    21.28000069  10.88999939  48.67000198
C    21.80999947  11.43000031  49.89999771
C    20.94000053  11.97000027  50.76000214
C    19.52000046  12.13999939  50.48999786
C    15.32999992  12.69999981  49.68000031
C    14.77000046  13.23999977  50.90000153
C    13.48999977  13.68999958  50.93000031
C    23.22000122  11.03999996  50.24000168
H    23.43292809  11.30260944  51.27624512
H    18.82999992  12.86000061  52.38999939
H    17.19000053  11.25000000  48.11999893
H    19.62000084  10.55999947  47.39999771
H    21.86000061  10.13000011  48.16999817
H    21.21999931  12.43000031  51.70000076
H    13.02000046  14.21000004  51.76000214
H    23.23999786   9.96000004  50.06000137
H    23.90999985  11.59000015  49.59000015
S    12.13999939  12.61999989  47.32999802
C     9.38000011  13.12000084  48.08000183
C    10.75000000  13.19000053  48.34000015
C    11.25000000  13.71999931  49.54999924
C    10.44000053  14.19000053  50.54000092
C     9.04999924  14.25000000  50.27000046
C     8.09000015  14.72000027  51.22000122
C     6.67999983  14.60000038  51.02000427
C     6.15000010  14.15999985  49.77000427
C     7.09999990  13.76000023  48.82999802
C     8.51000023  13.68999958  49.02000046
C    12.68000031  13.52000046  49.77000427
C    13.25000000  12.97999954  48.57999802
C    14.59000015  12.57999992  48.48999786
C     4.69000006  14.40999985  49.43000031
H     4.41892767  14.06759357  48.43131256
H     8.97999954  12.64999962  47.18000031
H    10.77000046  14.40000057  51.55000305
H     8.57999992  15.06999969  52.12999725
H     6.10000038  15.00000000  51.84999847
H     6.76000023  13.48000050  47.84000015
H    15.07999992  12.23999977  47.58999634
H     4.57999992  15.50000000  49.52000046
H     4.09999990  13.94000053  50.20999908
