96

S    12.63000011  16.72999954  44.52999878
C     9.96999931  16.87000084  45.14999771
C    11.21999931  16.54999924  45.56999969
C    11.56000042  16.20000076  46.88000107
C    10.53999996  16.15999985  47.83000183
C     9.21000004  16.51000023  47.44999695
C     8.06999969  16.63999939  48.37999725
C     6.78999996  16.84999847  47.95000076
C     6.48000002  17.11000061  46.62000275
C     7.53000021  17.15999985  45.70999908
C     8.90999985  16.77000046  46.05999756
C    13.02000046  16.18999863  47.08000183
C    13.68999958  16.42000008  45.89000320
C    15.10000038  16.36999893  45.81999969
C     5.09000015  17.52000046  46.11999893
H     4.72378111  16.99180031  45.23966599
H     9.89000034  17.28000069  44.15000153
H    10.64000034  16.00000000  48.89999771
H     8.14000034  16.47999954  49.45000076
H     5.96000004  16.94000053  48.64999771
H     7.23999977  17.45000076  44.69999695
H    15.59000015  16.59000015  44.86999893
H     4.38000011  17.32999992  46.93000031
H     5.13999987  18.60999870  46.00000000
S    16.20000076  15.29000092  49.40000153
C    18.86999893  14.91000080  48.53000259
C    17.61999893  15.44999981  48.34000015
C    17.22999954  15.93999958  47.06999969
C    18.22999954  16.02000046  46.04000092
C    19.51000023  15.54999924  46.30000305
C    20.43999863  15.31999969  45.27000046
C    21.73999977  14.86999989  45.61000061
C    22.00000000  14.32000065  46.86999893
C    21.02000046  14.34999943  47.81999969
C    19.82999992  15.01000023  47.56000137
C    15.81999969  16.06999969  46.97999954
C    15.10000038  15.90999985  48.18000031
C    13.71999931  15.98999977  48.23999786
C    23.40999985  14.04000092  47.35000229
H    23.60297775  14.61178303  48.25770569
H    19.10000038  14.40999985  49.47000122
H    18.00000000  16.28000069  45.00999832
H    20.29000092  15.71000004  44.27000046
H    22.50999832  14.98999977  44.85000229
H    21.25000000  13.97999954  48.81999969
H    13.22000027  15.88000107  49.19000244
H    24.20000076  14.22999954  46.62000275
H    23.50000000  12.94999981  47.47000122
S    15.72000027  13.02999973  52.25000000
C    18.38000107  12.05999947  51.58000183
C    16.98999977  12.20000076  51.31000137
C    16.57999992  11.90000057  49.99000168
C    17.46999931  11.40999985  49.06000137
C    18.79999924  11.46000004  49.29999924
C    19.76000023  11.09000015  48.34000015
C    21.07000160  11.11999989  48.62999725
C    21.57999992  11.47999954  49.86000061
C    20.69000053  11.90000057  50.86000061
C    19.29000092  11.80999947  50.56999969
C    15.14000034  12.22000027  49.69999695
C    14.57999992  12.84000015  50.87999725
C    13.31999969  13.28999996  50.84999847
C    23.00000000  11.16000080  50.19000244
H    23.26768684  11.27668476  51.24015808
H    18.81999969  12.39999962  52.51999664
H    17.18000031  11.10999966  48.06000137
H    19.56999969  10.85999966  47.29000092
H    21.77999878  10.67000008  47.95000076
H    21.02000046  12.05000019  51.88999939
H    12.89000034  13.88000011  51.65999985
H    23.15999985  10.10000038  49.94999695
H    23.72999954  11.72000027  49.59000015
S    11.78999996  12.27000046  47.37999725
C     9.21000004  12.94000053  48.09000015
C    10.57000065  12.86000061  48.41999817
C    11.05999947  13.12999916  49.77000427
C    10.22999954  13.61999989  50.70999908
C     8.85999966  13.66000080  50.44000244
C     7.88000011  14.06999969  51.37000275
C     6.53999996  14.19999981  51.04000092
C     6.09000015  13.94000053  49.72000122
C     6.96000004  13.40000057  48.81000137
C     8.34000015  13.25000000  49.15000153
C    12.43000031  12.94999981  49.79000092
C    13.00000000  12.46999931  48.62999725
C    14.34000015  12.01000023  48.53000259
C     4.59000015  14.29999924  49.45000076
H     4.37741566  13.98112297  48.42959595
H     8.76999950  12.69000053  47.12999725
H    10.54999924  13.93000031  51.70000076
H     8.23999977  14.26000023  52.37999725
H     5.91000032  14.60000038  51.83000183
H     6.71999979  13.21000004  47.77000046
H    14.63999939  11.35000038  47.71999741
H     4.40000010  15.36999893  49.59999847
H     4.01999998  13.68000031  50.15999603
