96

S    12.18999958  16.77000046  44.25000000
C     9.67000008  17.34000015  45.17000198
C    10.88999939  16.80999947  45.41999817
C    11.21000099  16.39999962  46.70000076
C    10.19999981  16.50000000  47.68000031
C     8.86999989  16.77999878  47.37999725
C     7.88000011  16.82999992  48.34999847
C     6.67000008  17.34000015  48.04000092
C     6.28999996  17.67000008  46.72000122
C     7.26000023  17.63000107  45.77000046
C     8.60999966  17.26000023  46.11999893
C    12.63000011  16.20000076  46.76000214
C    13.28999996  16.25000000  45.45999908
C    14.72000027  16.38000107  45.38999939
C     4.90999985  18.13999939  46.33999634
H     4.57923698  17.66452980  45.41661835
H     9.55999947  17.86999893  44.22999954
H    10.57999992  16.54000092  48.69999695
H     8.02999973  16.38000107  49.31999969
H     5.98999977  17.53000069  48.86000061
H     7.09999990  18.01000023  44.75999832
H    15.24000072  16.69999886  44.47999954
H     4.30999994  17.89999962  47.22999954
H     4.92000008  19.20999908  46.09000397
S    15.90000057  15.43000031  49.08000183
C    18.50000000  15.22999954  48.33000183
C    17.26000023  15.72000027  48.02000046
C    16.87000084  16.13999939  46.68000031
C    17.86999893  16.25000000  45.75000000
C    19.14999962  15.62000084  46.03000259
C    20.15999985  15.39000034  45.05000305
C    21.47000122  15.01000023  45.34000015
C    21.77000046  14.60999966  46.63999939
C    20.72000122  14.61999989  47.56000137
C    19.45000076  15.14999962  47.31999969
C    15.43000031  16.14999962  46.52000046
C    14.77000046  15.93000031  47.78999710
C    13.35000038  16.00000000  47.90000153
C    23.18000031  14.21000004  47.04999924
H    23.43425369  14.81294537  47.92173004
H    18.56999969  14.61999989  49.22000122
H    17.61000061  16.35000038  44.69999695
H    20.00000000  15.85999966  44.08000183
H    22.27000046  14.96999931  44.61000061
H    20.95000076  14.30999947  48.56999969
H    12.92000008  16.00000000  48.89999771
H    23.94000053  14.34999943  46.26999664
H    23.03999901  13.15000057  47.29000092
S    16.07999992  13.23999977  52.22000122
C    18.72999954  12.61000061  51.37000275
C    17.34000015  12.53000069  51.19999695
C    16.87999916  11.97000027  49.91000366
C    17.77000046  11.56000042  48.92000198
C    19.14999962  11.61000061  49.10999680
C    20.13000107  11.05999947  48.22999954
C    21.47000122  11.03000069  48.60000229
C    21.94999886  11.42000008  49.93000031
C    21.02999878  12.09000015  50.72999954
C    19.63999939  12.13000107  50.37000275
C    15.40999985  12.11999989  49.75999832
C    14.85999966  12.72999954  50.93000031
C    13.53999996  13.12999916  50.90999985
C    23.42000008  11.10999966  50.35999680
H    23.64895439  11.45343018  51.36882401
H    19.19999886  12.97999954  52.28000259
H    17.36999893  11.06999969  48.04000092
H    19.82999992  10.48999977  47.36000061
H    22.20999908  10.55999947  47.97000122
H    21.37000084  12.41000080  51.72000122
H    13.12000084  13.60999966  51.79000092
H    23.67000198  10.03999901  50.27999878
H    24.00000000  11.67000008  49.61999893
S    12.17000008  12.15999985  47.36000061
C     9.44999981  12.64000034  48.18000031
C    10.77999973  12.64000034  48.40000153
C    11.25000000  13.09000015  49.68000031
C    10.39000034  13.40999985  50.70000076
C     9.01000023  13.34000015  50.48999786
C     8.06999969  13.88000011  51.46999741
C     6.75000000  14.06999969  51.14999771
C     6.25000000  13.52000046  49.92000198
C     7.16000032  13.02000046  48.99000168
C     8.52000046  12.97999954  49.20999908
C    12.69999981  12.94000053  49.79999924
C    13.28999996  12.42000008  48.61999893
C    14.60000038  12.07999992  48.63999939
C     4.86000013  13.86000061  49.41999817
H     4.76711702  13.85285568  48.33398438
H     9.09000015  12.31999969  47.19999695
H    10.72999954  13.55000019  51.72999954
H     8.53999996  14.39000034  52.29999924
H     6.32999992  14.92000008  51.68000031
H     6.83000040  12.86999893  47.97000122
H    15.10000038  11.90999985  47.69000244
H     4.59000015  14.80000019  49.91000366
H     4.26000023  13.09000015  49.91000366
