96

S    12.10000038  16.51000023  44.52999878
C     9.50000000  17.20999908  45.17000198
C    10.72999954  16.68000031  45.54000092
C    11.03000069  16.14999962  46.81000137
C     9.96999931  16.05999947  47.76000214
C     8.69000053  16.61000061  47.49000168
C     7.51999950  16.51000023  48.34000015
C     6.28000021  16.90999985  47.95000076
C     6.09000015  17.40999985  46.62000275
C     7.17000008  17.56000137  45.75000000
C     8.43999958  17.12000084  46.17000198
C    12.44999981  15.88999939  47.01000214
C    13.19000053  16.21000099  45.90000153
C    14.60999966  16.11999893  45.84000015
C     4.65000010  17.77000046  46.23000336
H     4.31728792  17.37813950  45.26883316
H     9.30000019  17.81999969  44.29000092
H    10.17000008  15.52999973  48.68999863
H     7.68000031  16.04999924  49.31000137
H     5.40999985  16.72000122  48.56999969
H     7.05999947  17.86999893  44.71000290
H    15.11000061  16.14999962  44.86999893
H     3.96000004  17.46000099  47.02000046
H     4.69000006  18.86000061  46.30000305
S    15.65999985  15.26000023  49.52999878
C    18.44000053  14.92000008  48.61999893
C    17.10000038  15.36999893  48.47999954
C    16.77999878  15.86999989  47.15000153
C    17.84000015  16.21000099  46.20999908
C    19.12999916  15.54999924  46.27999878
C    20.09000015  15.48999977  45.25000000
C    21.32999802  14.88999939  45.40000153
C    21.63000107  14.45000076  46.76000214
C    20.69999886  14.42999935  47.77000046
C    19.36000061  14.88999939  47.54000092
C    15.36999893  16.00000000  46.98999786
C    14.60000038  15.65000057  48.16999817
C    13.15999985  15.57999992  48.18000031
C    23.06999969  14.01999950  47.12999725
H    23.36328316  14.51858330  48.05384827
H    18.73999977  14.57999992  49.59999847
H    17.53999901  16.77999878  45.33000183
H    19.78000069  15.90000057  44.29000092
H    21.94999886  14.80999947  44.51000214
H    20.95999908  14.11999893  48.77999878
H    12.61000061  15.43000031  49.10999680
H    23.71000099  14.22999954  46.25999832
H    23.13999939  12.93000031  47.18000031
S    11.68000031  17.09000015  51.03000259
C     9.00000000  17.47999954  51.65999985
C    10.19999981  16.95999908  52.01000214
C    10.47000027  16.48999977  53.33000183
C     9.48999977  16.65999985  54.26000214
C     8.22000027  17.12000084  53.99000168
C     7.13000011  16.95000076  54.86999893
C     5.88000011  17.45000076  54.55999756
C     5.73999977  18.18000031  53.29999924
C     6.81999969  18.18000031  52.36000061
C     8.05000019  17.63000107  52.67000198
C    11.95000076  16.39999962  53.47000122
C    12.72999954  16.69999886  52.29999924
C    14.09999943  16.86000061  52.25999832
C     4.40000010  18.63000107  52.75000000
H     4.15408945  17.97905922  51.91101074
H     8.80000019  17.79000092  50.63000107
H     9.63000011  16.31999969  55.28999710
H     7.36999989  16.39999962  55.77000046
H     5.03999996  17.15999985  55.19000244
H     6.67000008  18.47999954  51.32999802
H    14.55999947  17.09000015  51.30000305
H     3.75000000  18.43000031  53.60000229
H     4.28999996  19.71999931  52.61000061
S    15.01999950  15.98000050  56.10000229
C    17.72999954  15.65000057  55.44000244
C    16.48999977  16.04999924  55.06000137
C    16.23999977  16.45000076  53.67000198
C    17.20000076  16.34000015  52.77999878
C    18.52000046  15.97000027  53.18000031
C    19.61000061  16.01000023  52.25000000
C    20.89999962  15.50000000  52.54000092
C    21.19999886  15.11999989  53.92000198
C    20.17000008  15.22999954  54.87999725
C    18.82999992  15.55999947  54.52999878
C    14.80999947  16.62999916  53.46000290
C    14.02999973  16.39000130  54.66999817
C    12.67000008  16.18999863  54.61000061
C    22.50999832  14.47999954  54.25000000
H    22.97795486  15.03434563  55.06352234
H    17.73999977  15.19999981  56.43000031
H    16.97999954  16.46999931  51.72999954
H    19.27999878  16.35000038  51.26999664
H    21.59000015  15.42000008  51.70000076
H    20.43999863  15.14999962  55.93000031
H    12.03999996  15.95000076  55.45999908
H    23.15999985  14.57999992  53.36999893
H    22.36999893  13.43000031  54.52999878
