96

S    12.60000038  17.13999939  44.48999786
C     9.88000011  17.17000008  45.02999878
C    11.14999962  16.86000061  45.44000244
C    11.43000031  16.39999962  46.81000137
C    10.31000042  16.36999893  47.71999741
C     9.02999973  16.87999916  47.43999863
C     7.92000008  16.97999954  48.33000183
C     6.76999998  17.38999939  47.81999969
C     6.57999992  17.82999992  46.49000168
C     7.59000015  17.77000046  45.59999847
C     8.89000034  17.29999924  46.02000427
C    12.86999893  16.21000099  46.97999954
C    13.59000015  16.72000122  45.84999847
C    14.96000099  16.79000092  45.89000320
C     5.19999981  18.31999969  45.98999786
H     4.87215996  17.78088570  45.10119247
H     9.67000008  17.54999924  44.03999710
H    10.47999954  15.95999908  48.70999908
H     8.05000019  16.51000023  49.29999924
H     5.86999989  17.48999977  48.41999817
H     7.50999975  17.86999893  44.52000046
H    15.50000000  17.05000114  44.98000336
H     4.44000006  18.43000031  46.77000046
H     5.38000011  19.34000015  45.63999939
S    16.04999924  15.57000065  49.38999939
C    18.59000015  14.96999931  48.57999802
C    17.32999992  15.34999943  48.20999908
C    17.06999969  15.90000057  46.95999908
C    18.07999992  15.98000050  46.02000427
C    19.36000061  15.67999935  46.32999802
C    20.38000107  15.80000019  45.35999680
C    21.68999863  15.47999954  45.66999817
C    21.97000122  14.96000099  47.01000214
C    20.97999954  14.93999958  48.01000214
C    19.62000084  15.18000031  47.64999771
C    15.67999935  16.28999901  46.95999908
C    15.01000023  16.05999947  48.15000153
C    13.61999989  15.93999958  48.15999985
C    23.38000107  14.42999935  47.32999802
H    23.86461067  15.05714321  48.07829285
H    18.79999924  14.45000076  49.51000214
H    17.94999886  16.44000053  45.04000092
H    19.98999977  16.07999992  44.38999939
H    22.39999962  15.32999992  44.86000061
H    21.18999863  14.65000057  49.02999878
H    13.17000008  15.62999916  49.09999847
H    23.85000038  14.32999992  46.35000229
H    23.25000000  13.42000008  47.75000000
S    15.92000008  13.07999992  52.37999725
C    18.57999992  12.51999950  51.66999817
C    17.31999969  12.64000034  51.29000092
C    16.82999992  12.15999985  49.97000122
C    17.68000031  11.47999954  49.10999680
C    19.04999924  11.49000072  49.45999908
C    19.97999954  11.10000038  48.44999695
C    21.37000084  11.05000019  48.76999664
C    21.78999901  11.49000072  50.07999802
C    20.93000031  11.89000034  51.04000092
C    19.52000046  11.96000004  50.72999954
C    15.39000034  12.34000015  49.84000397
C    14.84000015  12.89000034  51.03000259
C    13.45000076  13.10999966  51.10000229
C    23.26999855  11.76000023  50.31999969
H    23.66248894  11.43636799  51.28400803
H    18.79999924  13.02000046  52.61000061
H    17.35000038  11.05999947  48.15999985
H    19.63000107  11.06999969  47.42000198
H    22.06000137  10.82999992  47.95000076
H    21.24000168  12.30999947  51.98999786
H    13.04999924  13.38999939  52.06999969
H    23.90000153  11.16000080  49.65000153
H    23.40999985  12.81999969  50.10000229
S    12.10999966  12.11999989  47.52999878
C     9.44000053  12.71000004  48.16999817
C    10.81999969  12.67000008  48.53000259
C    11.28999901  13.09000015  49.81999969
C    10.39999962  13.53999996  50.70000076
C     8.98999977  13.53000069  50.47000122
C     8.03999996  14.07999992  51.42000198
C     6.72999954  14.34999943  51.05999756
C     6.24000025  14.04000092  49.78000259
C     7.07999992  13.45000076  48.88000107
C     8.55000019  13.12999916  49.15000153
C    12.75000000  12.97999954  49.94999695
C    13.27999973  12.35999966  48.79000092
C    14.65000057  12.02999973  48.69999695
C     4.76999998  14.27000046  49.41999817
H     4.42503023  13.80759335  48.49518585
H     9.13000011  12.43999958  47.15999985
H    10.85000038  14.01999950  51.56999969
H     8.65999985  14.42000008  52.23999786
H     6.14000034  14.78000069  51.86000061
H     6.57000017  13.27999973  47.93000031
H    15.11000061  11.44000053  47.90999985
H     4.65999985  15.34000015  49.20999908
H     4.09000015  14.09000015  50.27000046
