96

S    12.13999939  16.81999969  44.09000015
C     9.47000027  17.26000023  44.79999924
C    10.75000000  16.79999924  45.13999939
C    11.03999996  16.61000061  46.51000214
C    10.03999901  16.63999939  47.43999863
C     8.71999931  16.90999985  47.11000061
C     7.62000036  16.93000031  48.02000046
C     6.32999992  17.35000038  47.68000031
C     6.07999992  17.75000000  46.31000137
C     7.13000011  17.86999893  45.41999817
C     8.45000076  17.32999992  45.75000000
C    12.44999981  16.36999893  46.62000275
C    13.17999935  16.46000099  45.40999985
C    14.52999973  16.31000137  45.34000015
C     4.72000027  18.19000053  45.80999756
H     4.26129150  17.39636230  45.22023010
H     9.30000019  17.61999893  43.79000092
H    10.24000072  16.47999954  48.50000000
H     7.73000002  16.61999893  49.05000305
H     5.46999979  17.22999954  48.33000183
H     6.98999977  18.20999908  44.40000153
H    15.11000061  16.50000000  44.45000076
H     4.07999992  18.30000114  46.70000076
H     4.73000002  19.14999962  45.27999878
S    15.52999973  15.32999992  49.02000046
C    18.29000092  15.27999973  48.50000000
C    16.98999977  15.70000076  48.08000183
C    16.69000053  16.07999992  46.72000122
C    17.76000023  16.10000038  45.79000092
C    19.05999947  15.65999985  46.19999695
C    20.17000008  15.62999916  45.28999710
C    21.38000107  15.13000011  45.63999939
C    21.56999969  14.63999939  46.93000031
C    20.59000015  14.75999928  47.84000015
C    19.30999947  15.25000000  47.50999832
C    15.24000072  16.04999924  46.47999573
C    14.47999954  15.84000015  47.63999939
C    13.09999943  15.98999977  47.74000168
C    23.02999878  14.21000004  47.29999924
H    23.43535614  14.84208202  48.09009933
H    18.45000076  14.84000015  49.48999786
H    17.61000061  16.39999962  44.75999832
H    19.97999954  16.05999947  44.31000137
H    22.13999939  14.98999977  44.87999725
H    20.68000031  14.45000076  48.87000275
H    12.63000011  15.75000000  48.68999863
H    23.55999947  14.34000015  46.36000061
H    23.19000053  13.17000008  47.62000275
S    12.11999989  17.00000000  50.63999939
C     9.44000053  17.52000046  51.45000076
C    10.69000053  17.02000046  51.73999786
C    11.00999928  16.60000038  53.02999878
C    10.05000019  16.77000046  54.09000015
C     8.76000023  17.20999908  53.80000305
C     7.78999996  17.35000038  54.80999756
C     6.50000000  17.63000107  54.47999954
C     6.23000050  18.05999947  53.13999939
C     7.17000008  18.01000023  52.18999863
C     8.43999958  17.52000046  52.43999863
C    12.43999958  16.34000015  53.13999939
C    13.22999954  16.54000092  51.97999954
C    14.60000038  16.60000038  51.90999985
C     4.79999971  18.45000076  52.80000305
H     4.47121096  18.01627922  51.85560608
H     9.25000000  18.04999924  50.52000046
H    10.08999920  16.35000038  55.08999634
H     8.01999950  17.00000000  55.81999969
H     5.69999981  17.53999901  55.20999908
H     6.97000027  18.40999985  51.19999695
H    15.06999969  17.07999992  51.05999756
H     4.15000010  18.19000053  53.64999771
H     4.80999994  19.52999878  52.64999771
S    15.59000015  15.65000057  55.63999939
C    18.20999908  15.38000011  55.04000092
C    16.98999977  15.72000027  54.61999893
C    16.65999985  16.21999931  53.33000183
C    17.77000046  16.43000031  52.39999771
C    19.04999924  16.04999924  52.80000305
C    20.19000053  16.17000008  51.95000076
C    21.40000153  15.60999966  52.37999725
C    21.60000038  14.92000008  53.60000229
C    20.51000214  14.82999992  54.41999817
C    19.26000023  15.43000031  54.13999939
C    15.26999950  16.29999924  53.08000183
C    14.52000046  16.09000015  54.25000000
C    13.12000084  16.13000107  54.29000092
C    23.03999901  14.45000076  54.02999878
H    23.26662636  14.80410480  55.03565598
H    18.29000092  14.84000015  55.97999954
H    17.64999962  16.84000015  51.39999771
H    20.10000038  16.61999893  50.97000122
H    22.26000023  15.67000008  51.70999908
H    20.59000015  14.35999966  55.40000153
H    12.57999992  15.97000027  55.21999741
H    23.71999931  14.86999989  53.27000046
H    23.01000214  13.35999966  53.90999603
