96

S    12.44999981  16.93000031  44.41999817
C     9.89000034  17.46000099  45.26000214
C    11.11999989  16.87999916  45.52999878
C    11.51999950  16.32999992  46.77000046
C    10.52000046  16.28000069  47.78999710
C     9.22000027  16.77999878  47.50999832
C     8.15999985  16.61999893  48.40999985
C     6.83000040  17.02999878  48.15999985
C     6.61000013  17.57999992  46.84999847
C     7.59000015  17.72999954  45.97999954
C     8.93999958  17.38999939  46.25000000
C    12.97000027  16.28999901  46.83000183
C    13.63000011  16.54999924  45.59000015
C    14.93000031  16.43000031  45.40999985
C     5.19999981  17.86999893  46.35000229
H     4.85043812  17.19272423  45.57076645
H     9.61000061  17.94000053  44.31999969
H    10.77000046  15.77000046  48.72000122
H     8.36000061  16.05999947  49.31999969
H     6.01000023  16.79999924  48.82999802
H     7.32999992  17.78000069  44.92000198
H    15.32999992  16.70999908  44.43999863
H     4.56999969  17.92000008  47.25000000
H     5.19999981  18.92000008  46.02000427
S    16.18999863  15.59000015  49.00000000
C    18.81000137  15.27999973  48.34000015
C    17.53999901  15.64000034  47.88000107
C    17.21999931  15.95000076  46.52000046
C    18.29000092  16.05999947  45.63999939
C    19.68000031  15.77999973  46.05999756
C    20.73999786  15.90000057  45.10000229
C    21.97999954  15.47000027  45.47000122
C    22.20000076  15.17000008  46.86000061
C    21.22999954  15.08999920  47.81000137
C    19.90999985  15.34000015  47.43999863
C    15.77000046  16.10000038  46.45999908
C    15.11999989  15.95999908  47.74000168
C    13.76999950  16.11999893  47.91999817
C    23.57000160  14.60999966  47.21000290
H    23.92170906  14.98324299  48.17181778
H    19.04000092  14.88999939  49.33000183
H    18.11000061  16.35000038  44.61000061
H    20.59000015  16.28999901  44.09999847
H    22.81999969  15.36000061  44.79000092
H    21.40000153  14.60000038  48.76999664
H    13.35999966  16.10999870  48.93000031
H    24.27000046  14.93999958  46.44000244
H    23.68999863  13.52000046  47.16999817
S    16.34000015  13.05999947  52.22000122
C    19.05999947  12.39999962  51.45000076
C    17.70000076  12.46000099  51.22000122
C    17.20000076  12.05000019  49.89999771
C    18.05999947  11.73999977  48.88999939
C    19.45000076  11.69999981  49.05000305
C    20.40999985  11.25000000  48.08000183
C    21.70999908  11.02000046  48.40999985
C    22.14999962  11.25000000  49.75999832
C    21.25000000  11.71000004  50.70000076
C    19.89999962  11.97000027  50.38999939
C    15.81999969  12.34000015  49.68999863
C    15.24000072  12.89999962  50.84000015
C    13.94000053  13.36999989  50.87999725
C    23.67000198  11.13999939  50.14999771
H    23.85367393  11.27959156  51.21530533
H    19.42000008  12.50000000  52.47000122
H    17.54999924  11.64999962  47.94000244
H    20.02000046  10.90999985  47.11999893
H    22.32000160  10.67000008  47.56999969
H    21.55999947  11.89000034  51.72999954
H    13.55999947  13.69999981  51.84000015
H    23.98999977  10.19000053  49.69999695
H    24.36000061  11.84000015  49.65999985
S    12.57999992  12.22000027  47.31999969
C     9.89999962  12.58999920  48.18000031
C    11.23000050  12.65999985  48.47000122
C    11.67000008  13.17999935  49.68999863
C    10.78999996  13.57999992  50.63000107
C     9.39999962  13.38999939  50.43000031
C     8.46000004  13.76999950  51.40999603
C     7.13999987  14.02999973  51.09000397
C     6.67999983  13.68000031  49.77000427
C     7.53999996  13.12000084  48.85000229
C     8.89999962  12.92000008  49.15000153
C    13.12999916  13.15999985  49.75000000
C    13.68000031  12.60000038  48.54999924
C    15.01000023  12.23000050  48.50999832
C     5.26000023  13.82999992  49.34000015
H     5.05105162  13.63546085  48.28805161
H     9.61000061  12.48999977  47.14000320
H    11.14999962  13.94999981  51.59000015
H     8.90999985  14.27999973  52.25999832
H     6.47000027  14.56999969  51.75000000
H     7.13000011  12.86999893  47.87000275
H    15.51000023  11.85999966  47.63000107
H     4.98000002  14.85000038  49.61000061
H     4.67999983  13.17000008  50.00000000
