96

S    12.42000008  17.05999947  44.27000046
C     9.68999958  17.14999962  44.98000336
C    10.95000076  16.73999977  45.21999741
C    11.31000042  16.27000046  46.52999878
C    10.38000011  16.28999901  47.56999969
C     9.06000042  16.69000053  47.36999893
C     8.05999947  16.65999985  48.36000061
C     6.72999954  16.94000053  48.11000061
C     6.37000036  17.38999939  46.77000046
C     7.37999964  17.63000107  45.81999969
C     8.71999931  17.07999992  46.02000427
C    12.75000000  16.17000008  46.77999878
C    13.45000076  16.56999969  45.61999893
C    14.82999992  16.54000092  45.56999969
C     4.99000025  17.71999931  46.44000244
H     4.62162733  17.27517319  45.51559448
H     9.44999981  17.48999977  43.96999741
H    10.67000008  16.00000000  48.56999969
H     8.34999943  16.18000031  49.29000092
H     6.01000023  16.87999916  48.92000198
H     7.17999983  18.17000008  44.88999939
H    15.39000034  16.90000153  44.72000122
H     4.32999992  17.43999863  47.25999832
H     4.84000015  18.81000137  46.33999634
S    16.13000107  15.32999992  49.16999817
C    18.73999977  15.01000023  48.18999863
C    17.43999863  15.21000004  47.97999954
C    17.05000114  15.78999996  46.77999878
C    17.97999954  16.13000107  45.76000214
C    19.38999939  15.84000015  45.93999863
C    20.46999931  15.95999908  44.94999695
C    21.76000214  15.65000057  45.27000046
C    22.09000015  15.14999962  46.56000137
C    21.11000061  14.91000080  47.50000000
C    19.71999931  15.22999954  47.21000290
C    15.60999966  16.05999947  46.66999817
C    14.96999931  15.80000019  47.90000153
C    13.53000069  15.80999947  47.95000076
C    23.52999878  15.03999901  46.91999817
H    23.64413834  14.91872501  47.99720001
H    19.04999924  14.61999989  49.15999985
H    17.56000137  16.61999893  44.88999939
H    20.22000122  16.50000000  44.03999710
H    22.59000015  15.92000008  44.62999725
H    21.35000038  14.60999966  48.52000427
H    13.15999985  15.52999973  48.93000031
H    23.92000008  16.01000023  46.59000015
H    24.13000107  14.29999924  46.37000275
S    12.02999973  17.35000038  51.02000427
C     9.28999996  17.60000038  51.81000137
C    10.59999943  17.17000008  52.11999893
C    10.97000027  16.68000031  53.40000153
C     9.98999977  16.39000130  54.29999924
C     8.64000034  16.81999969  54.02000046
C     7.63000011  16.62999916  55.07999802
C     6.37000036  17.12000084  54.88999939
C     6.01000023  17.76000023  53.66000366
C     6.98000002  18.02999878  52.70000076
C     8.30000019  17.54999924  52.84000015
C    12.41000080  16.54999924  53.59000397
C    13.09999943  16.90999985  52.43999863
C    14.47999954  16.88999939  52.42000198
C     4.59999990  18.12999916  53.34000015
H     4.26726484  17.57317734  52.46402359
H     9.02000046  17.86999893  50.79000092
H    10.17000008  15.70000076  55.12000275
H     7.86999989  16.02000046  55.94999695
H     5.61999989  16.92000008  55.65000153
H     6.76000023  18.45000076  51.70999908
H    14.94999981  16.97000122  51.45000076
H     3.81999993  17.87999916  54.06999969
H     4.40000010  19.17000008  53.08000183
S    15.47000027  15.72000027  56.04999924
C    18.09999847  15.01000023  55.19000244
C    16.80999947  15.53999996  54.92000198
C    16.57999992  16.03999901  53.60000229
C    17.60000038  16.31000137  52.70999908
C    18.88000107  15.80999947  53.04999924
C    19.95000076  16.00000000  52.18000031
C    21.14999962  15.52999973  52.45999908
C    21.44000053  14.93999958  53.66000366
C    20.45999908  14.72000027  54.65999985
C    19.13999939  15.14999962  54.34999847
C    15.17000008  16.36999893  53.50999832
C    14.46000004  16.10000038  54.68000031
C    13.12000084  16.25000000  54.72000122
C    22.84000015  14.68999958  54.00000000
H    23.18981934  15.33133602  54.80895996
H    18.19000053  14.35999966  56.05999756
H    17.43999863  16.88999939  51.79999924
H    19.75000000  16.40999985  51.18999863
H    21.91999817  15.76000023  51.72999954
H    20.65000153  14.29999924  55.63999939
H    12.64000034  16.39000130  55.68000031
H    23.42000008  14.78999996  53.06999969
H    22.93999863  13.64999962  54.33000183
