96

S    12.51000023  17.13999939  44.38000107
C     9.89999962  17.53000069  45.19000244
C    11.09000015  17.07999992  45.52000046
C    11.47999954  16.63999939  46.77000046
C    10.47000027  16.51000023  47.70000076
C     9.15000057  16.90999985  47.36999893
C     8.02999973  16.63999939  48.26000214
C     6.72999954  16.94000053  47.84000015
C     6.44999981  17.45000076  46.56999969
C     7.46000004  17.64000130  45.66999817
C     8.86999989  17.50000000  46.11999893
C    12.92000008  16.47999954  46.84999847
C    13.61999989  16.69999886  45.61999893
C    14.98000050  16.72999954  45.59999847
C     5.07000017  17.94999886  46.22000122
H     4.68027067  17.46106720  45.32716370
H     9.65999985  17.84000015  44.18000031
H    10.67000008  16.09000015  48.68000031
H     8.25000000  16.14999962  49.20999908
H     6.00000000  16.82999992  48.62999725
H     7.26999998  17.94000053  44.64000320
H    15.43000031  16.82999992  44.61999893
H     4.41000032  17.93000031  47.09999847
H     5.19999981  19.03000069  46.09000397
S    16.15999985  15.48999977  49.22999954
C    18.68000031  14.75000000  48.30999756
C    17.48999977  15.39000034  48.04999924
C    17.14999962  16.05999947  46.81999969
C    18.19000053  16.13999939  45.90999985
C    19.45999908  15.59000015  46.11999893
C    20.52999878  15.55999947  45.20000076
C    21.77000046  15.01999950  45.54000092
C    22.01999855  14.47000027  46.81999969
C    20.93000031  14.37000084  47.64999771
C    19.69000053  14.84000015  47.34000397
C    15.72000027  16.47999954  46.75000000
C    15.03000069  16.18000031  47.95000076
C    13.63000011  16.11999893  48.00000000
C    23.45999908  14.17000008  47.27000427
H    23.65234375  14.68520260  48.21110535
H    18.89999962  14.30999947  49.27999878
H    18.04000092  16.56999969  44.92000198
H    20.38999939  15.95999908  44.20000076
H    22.63000107  15.13000011  44.88999939
H    20.97999954  14.22000027  48.73000336
H    13.07000065  15.69000053  48.81999969
H    24.11000061  14.37000084  46.40999603
H    23.51000023  13.09000015  47.48000336
S    12.05000019  17.30999947  50.90000153
C     9.28999996  17.64000130  51.63000107
C    10.64000034  17.34000015  51.98999786
C    10.95999908  17.04000092  53.36000061
C     9.92999935  17.02000046  54.34000015
C     8.60000038  17.28999901  54.02999878
C     7.50999975  17.10000038  54.99000168
C     6.19000006  17.32999992  54.61000061
C     5.89999962  17.79999924  53.29000092
C     6.91999960  18.04000092  52.34000397
C     8.26000023  17.61999893  52.62000275
C    12.39999962  16.69000053  53.48999786
C    13.10999966  16.92000008  52.25000000
C    14.50000000  16.95000076  52.22000122
C     4.42999983  18.06999969  52.95999908
H     4.12428236  17.69149208  51.98461914
H     8.97999954  18.15999985  50.72999954
H    10.18000031  16.56999969  55.30000305
H     7.85000038  16.77999878  55.97000122
H     5.36999989  17.09000015  55.27999878
H     6.76000023  18.38999939  51.32999802
H    15.05000019  17.17000008  51.30000305
H     3.77999997  17.59000015  53.68999863
H     4.34999990  19.15999985  53.08000183
S    15.57000065  15.90999985  55.86999893
C    18.25000000  15.53999996  55.25000000
C    17.04000092  15.98000050  54.88999939
C    16.69000053  16.46999931  53.55999756
C    17.69000053  16.60000038  52.63999939
C    19.01000023  16.17000008  52.91999817
C    19.98999977  16.11999893  51.90999985
C    21.25999832  15.72999954  52.29000092
C    21.54999924  15.18000031  53.57999802
C    20.61000061  15.22999954  54.58000183
C    19.31999969  15.67000008  54.29000092
C    15.21999931  16.57999992  53.36000061
C    14.55000019  16.38000107  54.58000183
C    13.14000034  16.38000107  54.65000153
C    22.90999985  14.65000057  53.96999741
H    23.16555977  14.97655010  54.97804260
H    18.45000076  15.10000038  56.22000122
H    17.35000038  16.79999924  51.63000107
H    19.71999931  16.42000008  50.90000153
H    22.06000137  15.64000034  51.56000137
H    20.78000069  14.82999992  55.58000183
H    12.61999989  16.06999969  55.54999924
H    23.68999863  14.94999981  53.26000214
H    22.92000008  13.55000019  54.00000000
