96

S    12.25999928  17.36999893  44.34999847
C     9.52999973  17.59000015  45.04000092
C    10.78999996  17.19000053  45.35999680
C    11.18999958  16.72999954  46.70000076
C    10.15999985  16.68000031  47.64999771
C     8.76999950  16.95000076  47.36000061
C     7.65999985  17.02000046  48.34999847
C     6.42000008  17.47999954  48.02999878
C     6.15000010  17.94999886  46.70000076
C     7.22000027  17.97000122  45.79000092
C     8.52999973  17.46999931  46.03000259
C    12.65999985  16.64999962  46.86000061
C    13.31999969  16.98999977  45.75000000
C    14.68000031  17.04000092  45.68999863
C     4.69000006  18.42000008  46.40999603
H     4.32249784  18.03888702  45.45721436
H     9.36999989  18.09000015  44.09999847
H    10.43000031  16.52000046  48.68999863
H     7.96000004  16.75000000  49.36000061
H     5.61999989  17.52000046  48.75000000
H     7.07999992  18.50000000  44.85000229
H    15.17000008  17.30999947  44.75999832
H     3.97000027  18.05999947  47.15000153
H     4.67000008  19.52000046  46.40999603
S    15.88999939  15.77999973  49.27000046
C    18.53000069  15.32999992  48.52000427
C    17.26000023  15.82999992  48.18000031
C    16.87999916  16.26000023  46.88000107
C    17.81999969  16.31000137  45.90000153
C    19.17000008  16.03000069  46.18999863
C    20.30999947  16.10999870  45.27000046
C    21.60000038  15.71000004  45.61000061
C    21.87999916  15.29999924  46.95000076
C    20.88000107  15.14999962  47.90999985
C    19.54000092  15.46000004  47.52999878
C    15.43000031  16.57999992  46.73999786
C    14.75999928  16.32999992  47.95999908
C    13.36999989  16.38000107  48.04000092
C    23.29000092  14.84000015  47.22000122
H    23.54550743  15.16850758  48.22742462
H    18.84000015  15.06999969  49.52999878
H    17.64000130  16.52000046  44.85000229
H    20.05000114  16.55999947  44.31999969
H    22.25000000  15.73999977  44.75000000
H    21.02000046  14.88999939  48.95999908
H    12.89000034  16.20000076  48.99000168
H    23.92000008  15.32999992  46.45999908
H    23.40999985  13.76999950  47.01000214
S    15.98999977  13.14000034  52.19999695
C    18.61999893  12.56999969  51.43000031
C    17.26000023  12.60000038  51.06999969
C    16.75000000  12.22000027  49.78000259
C    17.65999985  11.84999943  48.80000305
C    19.05999947  11.77000046  49.13999939
C    20.03999901  11.46999931  48.16999817
C    21.37000084  11.26999950  48.60000229
C    21.83000183  11.61000061  49.88999939
C    20.95000076  12.17000008  50.79000092
C    19.55000114  12.13000107  50.47000122
C    15.34999943  12.53000069  49.72000122
C    14.75999928  12.94000053  50.91999817
C    13.38999939  13.38999939  51.00999832
C    23.31000137  11.61000061  50.21999741
H    23.61870384  11.66880131  51.26371384
H    19.09000015  12.84000015  52.36000061
H    17.36999893  11.68000031  47.77000046
H    19.60000038  11.28000069  47.18999863
H    22.04999924  10.77999973  47.90999985
H    21.25000000  12.56999969  51.76000214
H    13.01000023  13.55000019  52.01000214
H    23.77000046  10.70000076  49.82999802
H    23.90999985  12.38000011  49.72000122
S    12.00000000  12.55000019  47.39999771
C     9.30000019  13.15000057  48.16999817
C    10.69000053  13.10999966  48.46000290
C    11.13999939  13.50000000  49.73999786
C    10.17000008  13.78000069  50.75000000
C     8.80000019  13.69999981  50.41999817
C     7.88999987  14.09999943  51.45000076
C     6.52999973  14.18000031  51.18999863
C     6.02999973  13.88000011  49.87999725
C     6.88000011  13.32999992  48.95000076
C     8.30000019  13.40999985  49.12000275
C    12.56000042  13.38999939  49.87999725
C    13.15000057  12.89999962  48.67000198
C    14.52000046  12.53000069  48.59000397
C     4.63000011  14.23999977  49.43000031
H     4.38350821  13.92826080  48.41503143
H     8.97000027  12.89999962  47.16999817
H    10.42000008  14.14999962  51.73999786
H     8.31999969  14.42999935  52.38999939
H     5.92999983  14.44000053  52.05999756
H     6.52999973  12.97999954  47.97999954
H    14.88999939  12.34000015  47.57999802
H     4.55000019  15.31999969  49.61999893
H     3.95000005  13.69999981  50.08999634
