96

S    12.25999928  16.95000076  44.25000000
C     9.63000011  17.26000023  45.05000305
C    10.93000031  16.90000153  45.40000153
C    11.30000019  16.46000099  46.63999939
C    10.26999950  16.36999893  47.56999969
C     8.94999981  16.72999954  47.25999832
C     7.88999987  16.73999977  48.20000076
C     6.57000017  16.95999908  47.85999680
C     6.26999950  17.45000076  46.56999969
C     7.34000015  17.65999985  45.68999863
C     8.65999985  17.25000000  46.00000000
C    12.77999973  16.32999992  46.70999908
C    13.43999958  16.54999924  45.47999954
C    14.82999992  16.39999962  45.37000275
C     4.80999994  17.70000076  46.07999802
H     4.55433369  17.11562157  45.19612122
H     9.40999985  17.53999901  44.02000046
H    10.55999947  16.04999924  48.56999969
H     8.18000031  16.28000069  49.13999939
H     5.75999975  16.59000015  48.48999786
H     7.23999977  17.94000053  44.64000320
H    15.26000023  16.79999924  44.45000076
H     3.98999977  17.69000053  46.81999969
H     4.86000013  18.75000000  45.76000214
S    16.05999947  15.26999950  48.95999908
C    18.71999931  15.05000019  48.20999908
C    17.45000076  15.47999954  47.93000031
C    17.09000015  16.09000015  46.69000244
C    18.02000046  16.36000061  45.76000214
C    19.36000061  15.84000015  45.98999786
C    20.43000031  15.81999969  44.98000336
C    21.68999863  15.29000092  45.31000137
C    21.97000122  14.84000015  46.63000107
C    20.98999977  14.81999969  47.56000137
C    19.69000053  15.26000023  47.25000000
C    15.62999916  16.18999863  46.52000046
C    14.98999977  15.93000031  47.75000000
C    13.60999966  15.93999958  47.77000046
C    23.36999893  14.28999996  46.98999786
H    23.66831779  14.72656250  47.94316101
H    19.04000092  14.67000008  49.16999817
H    17.71000099  16.59000015  44.73999786
H    20.17000008  16.21000099  44.00000000
H    22.37999916  15.03999901  44.51000214
H    21.12999916  14.47999954  48.57999802
H    13.07000065  15.53999996  48.61999893
H    24.13000107  14.47999954  46.22000122
H    23.23999786  13.21000004  47.02999878
S    16.00000000  13.03999996  52.44999695
C    18.67000008  12.51999950  51.68000031
C    17.31999969  12.56999969  51.44000244
C    16.88999939  12.17000008  50.17000198
C    17.68000031  11.52999973  49.25000000
C    19.09000015  11.54000092  49.48999786
C    20.07999802  11.28000069  48.43999863
C    21.45000076  11.23000050  48.77999878
C    21.94000053  11.54999924  50.08999634
C    20.98999977  11.92000008  51.00999832
C    19.57999992  11.97999954  50.75000000
C    15.42000008  12.25000000  50.08999634
C    14.80000019  12.76000023  51.27999878
C    13.45999908  12.93000031  51.26999664
C    23.39999962  11.30000019  50.38999939
H    23.61231422  11.32196331  51.45889664
H    18.98999977  12.82999992  52.67000198
H    17.20000076  11.13999939  48.34999847
H    19.78000069  10.90999985  47.45999908
H    22.11999893  10.70000076  48.09999847
H    21.30000114  12.13999939  52.02999878
H    13.07000065  13.09999943  52.27000427
H    23.59999847  10.31000042  49.97000122
H    24.06999969  12.01000023  49.87999725
S    12.15999985  11.95000076  47.57999802
C     9.48999977  12.79000092  48.29999924
C    10.80999947  12.60000038  48.59000397
C    11.21000099  12.86999893  49.93000031
C    10.29000092  13.15999985  50.87999725
C     8.93999958  13.23999977  50.59000015
C     8.02999973  13.81000042  51.53999710
C     6.74000025  14.14000034  51.20999908
C     6.23000050  13.73000050  49.93999863
C     7.13999987  13.34000015  48.96999741
C     8.51000023  13.15000057  49.20000076
C    12.67000008  12.76999950  50.10000229
C    13.27999973  12.20999908  48.93000031
C    14.63999939  11.94000053  48.93000031
C     4.76999998  13.89000034  49.54000092
H     4.65472555  13.69547462  48.47371292
H     9.22000027  12.48000050  47.29000092
H    10.64000034  13.45999908  51.86000061
H     8.51000023  14.18000031  52.43999863
H     6.12999964  14.61999989  51.97999954
H     6.85999966  13.01000023  47.97000122
H    15.15999985  11.75000000  48.00000000
H     4.40000010  14.91000080  49.68999863
H     4.09999990  13.35000038  50.21999741
