96

S    12.32999992  16.95000076  44.10999680
C     9.52999973  17.40999985  44.87999725
C    10.78999996  16.84999847  45.17000198
C    11.13000011  16.32999992  46.45000076
C    10.14000034  16.20000076  47.36999893
C     8.78000069  16.57999992  47.06999969
C     7.69999981  16.51000023  47.98999786
C     6.42000008  16.87000084  47.74000168
C     6.14000034  17.53000069  46.44000244
C     7.13000011  17.67000008  45.54000092
C     8.47000027  17.27000046  45.83000183
C    12.57999992  16.17000008  46.63999939
C    13.31999969  16.46000099  45.47999954
C    14.68000031  16.39000130  45.41999817
C     4.72000027  17.87999916  46.20999908
H     4.29403019  17.42563248  45.31546021
H     9.35999966  18.05999947  44.02000046
H    10.32999992  15.70000076  48.31999969
H     7.76000023  15.82999992  48.83999634
H     5.69000006  16.68000031  48.52000427
H     6.89000034  18.07999992  44.55999756
H    15.13000011  16.45000076  44.43999863
H     4.11000013  17.48999977  47.02999878
H     4.65999985  18.96999931  46.25000000
S    15.69000053  15.24000072  49.09000015
C    18.36000061  14.80999947  48.27000046
C    17.13999939  15.29000092  48.02999878
C    16.79000092  15.86999989  46.79000092
C    17.76000023  15.95999908  45.80999756
C    19.10000038  15.48999977  46.00000000
C    20.12000084  15.53999996  44.98000336
C    21.38999939  15.21000004  45.34000015
C    21.75000000  14.77000046  46.63999939
C    20.73999786  14.52000046  47.55000305
C    19.37999916  14.93999958  47.31999969
C    15.34999943  16.09000015  46.59999847
C    14.60999966  15.76000023  47.76000214
C    13.26000023  15.78999996  47.85999680
C    23.15000153  14.37000084  47.04000092
H    23.31858063  14.65096855  48.07958603
H    18.39999962  14.18000031  49.15000153
H    17.48999977  16.45000076  44.87999725
H    19.92000008  16.14999962  44.09999847
H    22.17000008  15.36000061  44.59999847
H    20.95999908  14.02999973  48.48999786
H    12.69999981  15.57000065  48.75999832
H    23.95000076  14.72000027  46.37000275
H    23.19999886  13.27000046  46.95999908
S    15.98000050  12.77999973  52.19999695
C    18.54999924  12.30999947  51.42000198
C    17.23999977  12.20000076  51.09000397
C    16.77000046  11.82000065  49.77000427
C    17.65999985  11.42000008  48.81000137
C    19.05999947  11.57999992  49.06999969
C    20.02000046  11.02000046  48.20999908
C    21.31999969  10.93999958  48.64999771
C    21.80000114  11.57999992  49.80999756
C    20.86000061  12.10999966  50.68999863
C    19.47000122  12.05999947  50.38999939
C    15.32999992  12.18000031  49.62999725
C    14.78000069  12.75000000  50.83000183
C    13.48999977  13.15000057  50.90999985
C    23.12000084  11.16000080  50.44000244
H    23.15530014  11.30120850  51.52024078
H    18.85000038  12.64000034  52.41000366
H    17.35000038  10.88999939  47.90999985
H    19.51000023  10.44000053  47.44999695
H    22.04000092  10.24000072  48.23999786
H    21.00000000  12.05999947  51.77000046
H    13.03999996  13.63999939  51.77000046
H    23.29999924  10.15999985  50.05000305
H    23.82999802  11.84999943  49.95999908
S    12.02000046  12.15999985  47.31999969
C     9.40999985  13.00000000  48.02000046
C    10.76000023  12.88000011  48.34000015
C    11.18999958  13.17000008  49.65999985
C    10.31999969  13.48999977  50.65999985
C     8.93999958  13.63999939  50.37000275
C     7.96999979  14.15999985  51.30000305
C     6.58999968  14.17000008  51.00000000
C     6.17999983  13.69999981  49.77000427
C     7.00000000  13.30999947  48.80000305
C     8.45000076  13.35000038  49.06000137
C    12.63000011  12.94999981  49.79999924
C    13.19000053  12.31999969  48.62999725
C    14.57999992  11.98999977  48.44999695
C     4.73000002  13.94000053  49.40999985
H     4.48047352  13.75791359  48.36468506
H     9.09000015  12.61000061  47.05999756
H    10.80999947  13.59000015  51.63000107
H     8.40999985  14.52999973  52.22000122
H     5.84000015  14.53999996  51.70000076
H     6.67999983  13.17999935  47.76000214
H    15.01000023  11.56000042  47.55000305
H     4.44000006  14.92000008  49.79999924
H     4.13000011  13.17999935  49.93000031
