96

S    12.15000057  17.35000038  44.34999847
C     9.59000015  17.60000038  45.20000076
C    10.81999969  17.17000008  45.47999954
C    11.16000080  16.52000046  46.72999954
C    10.08999920  16.44000053  47.70000076
C     8.78000069  16.86000061  47.39999771
C     7.77999973  16.82999992  48.31999969
C     6.40999985  17.15999985  48.01000214
C     6.12999964  17.63000107  46.65999985
C     7.16000032  17.78000069  45.77000046
C     8.48999977  17.34000015  46.10000229
C    12.60000038  16.36000061  46.81999969
C    13.26000023  16.79999924  45.63999939
C    14.68999958  16.75000000  45.63999939
C     4.71000004  18.09000015  46.31000137
H     4.40450764  17.51453781  45.43614960
H     9.46000004  18.13999939  44.27000046
H    10.29000092  15.95999908  48.66000366
H     8.03999996  16.46999931  49.31000137
H     5.58000040  17.07999992  48.70999908
H     7.13000011  18.35000038  44.85000229
H    15.24000072  17.28999901  44.86999893
H     3.98999977  17.94000053  47.12999725
H     4.63999987  19.17000008  46.10000229
S    15.73999977  15.72999954  49.31000137
C    18.42000008  15.15999985  48.55999756
C    17.20000076  15.77999973  48.27000046
C    16.87999916  16.22999954  46.95999908
C    17.86000061  16.26000023  45.97999954
C    19.18000031  15.81999969  46.26999664
C    20.20999908  15.78999996  45.24000168
C    21.45999908  15.21000004  45.50000000
C    21.73000145  14.70999908  46.81000137
C    20.76000023  14.75999928  47.84999847
C    19.47000122  15.29999924  47.60000229
C    15.44000053  16.31999969  46.76000214
C    14.70000076  16.07999992  47.90999985
C    13.30999947  16.07999992  47.97000122
C    23.16999817  14.32000065  47.27000427
H    23.41518974  14.90412712  48.15700912
H    18.56999969  14.59000015  49.47000122
H    17.51000023  16.38000107  44.95999908
H    20.03999901  16.29999924  44.29999924
H    22.25000000  15.31000042  44.77000427
H    20.94000053  14.40999985  48.86000061
H    12.89000034  15.90000057  48.95999908
H    23.90999985  14.63000107  46.52000046
H    23.23999786  13.23999977  47.47000122
S    11.95000076  17.20000076  51.04000092
C     9.27999973  17.52000046  51.56000137
C    10.50000000  17.15999985  52.02000046
C    10.76000023  16.90999985  53.37999725
C     9.72999954  16.80999947  54.22999954
C     8.40999985  17.00000000  53.76999664
C     7.28999996  16.64999962  54.55999756
C     6.03999996  16.97999954  54.09999847
C     5.82000017  17.82999992  52.97000122
C     6.90999985  18.07999992  52.15000153
C     8.18000031  17.57999992  52.48000336
C    12.20999908  16.65999985  53.61999893
C    12.97999954  16.87999916  52.41000366
C    14.32000065  16.75000000  52.38999939
C     4.38000011  18.20000076  52.63000107
H     4.00584793  17.63877296  51.77376938
H     9.21000004  17.89999962  50.54000092
H    10.03000069  16.42000008  55.20000076
H     7.40999985  16.18000031  55.52999878
H     5.19999981  16.59000015  54.65000153
H     6.63999987  18.36000061  51.12999725
H    14.85999966  16.77999878  51.45000076
H     3.78999996  17.94999886  53.52000427
H     4.30999994  19.27999878  52.45999908
S    15.44000053  15.98999977  56.07999802
C    18.06999969  15.51000023  55.31000137
C    16.77999878  15.85000038  54.98000336
C    16.39000130  16.11999893  53.62999725
C    17.39999962  16.07999992  52.63999939
C    18.75000000  15.76000023  52.90999985
C    19.73999977  15.80000019  51.90999985
C    21.00000000  15.40999985  52.30999756
C    21.35000038  15.01000023  53.61999893
C    20.43000031  15.10000038  54.65999985
C    19.06999969  15.40999985  54.31000137
C    15.00000000  16.39000130  53.50999832
C    14.30999947  16.21999931  54.71000290
C    12.88000011  16.25000000  54.77000427
C    22.76000023  14.65999985  53.88999939
H    22.98152351  15.16950417  54.82778168
H    18.38999939  15.11999989  56.27999878
H    17.12000084  16.43000031  51.65000153
H    19.42000008  15.98999977  50.89000320
H    21.75000000  15.31999969  51.53999710
H    20.68000031  14.80999947  55.66999817
H    12.38000011  16.18999863  55.72999954
H    23.44000053  15.03000069  53.11999893
H    22.78000069  13.56999969  54.01000214
