96

S    12.05000019  17.19000053  44.06999969
C     9.36999989  17.46000099  44.82999802
C    10.65000057  17.10000038  45.20000076
C    11.10000038  16.76000023  46.52999878
C    10.11999989  16.67000008  47.52999878
C     8.78999996  17.02000046  47.15999985
C     7.75000000  16.98999977  48.06999969
C     6.47000027  17.26000023  47.74000168
C     6.15000010  17.79999924  46.49000168
C     7.18999958  17.92000008  45.51000214
C     8.46000004  17.47999954  45.83000183
C    12.53000069  16.69000053  46.68000031
C    13.17999935  16.84999847  45.40000153
C    14.55000019  16.69000053  45.33000183
C     4.78999996  18.34000015  46.11999893
H     4.35418081  17.63003540  45.41706848
H     9.07999992  17.79999924  43.83999634
H    10.36999893  16.57999992  48.59000397
H     7.77999973  16.56999969  49.08000183
H     5.69999981  17.28000069  48.50000000
H     6.98999977  18.27000046  44.51000214
H    15.01999950  16.86000061  44.36999893
H     4.25000000  18.46999931  47.06999969
H     4.90000010  19.36000061  45.72999954
S    15.71000004  15.81999969  49.01000214
C    18.36000061  15.22999954  48.20000076
C    17.06999969  15.72999954  47.90000153
C    16.72999954  16.07999992  46.59000015
C    17.69000053  16.10000038  45.58000183
C    19.04999924  15.70000076  45.86999893
C    20.03999901  15.64000034  44.84000397
C    21.21999931  15.01999950  45.15999603
C    21.56999969  14.65000057  46.47999573
C    20.66999817  14.80999947  47.50000000
C    19.36000061  15.21999931  47.22999954
C    15.32999992  16.29999924  46.42000198
C    14.61999989  16.31000137  47.63999939
C    13.23999977  16.47999954  47.81999969
C    22.96999931  14.34000015  46.88000107
H    23.28809547  14.83097267  47.79970932
H    18.72999954  15.00000000  49.20000076
H    17.32999992  16.31999969  44.58000183
H    19.88000107  16.03000069  43.83999634
H    21.98999786  14.86999989  44.40999985
H    21.01000023  14.47000027  48.47999954
H    12.71999931  16.31000137  48.75999832
H    23.61999893  14.55000019  46.03000259
H    23.03999901  13.26000023  47.05999756
S    15.82999992  13.28999996  52.21000290
C    18.50000000  12.51000023  51.56000137
C    17.14999962  12.67000008  51.18000031
C    16.70999908  12.25999928  49.87999725
C    17.64000130  11.77999973  48.93000031
C    19.02000046  11.77000046  49.18000031
C    19.96000099  11.32999992  48.20000076
C    21.27000046  11.03999996  48.55999756
C    21.70999908  11.44000053  49.86000061
C    20.79999924  11.95000076  50.80999756
C    19.43000031  12.06999969  50.56999969
C    15.31999969  12.61999989  49.72000122
C    14.70999908  13.15000057  50.91999817
C    13.42000008  13.71000099  50.90999985
C    23.16999817  11.10000038  50.20999908
H    23.48806953  11.48464394  51.17900848
H    18.89000130  12.69999981  52.56000137
H    17.30999947  11.56999969  47.91999817
H    19.60000038  10.93000031  47.25999832
H    21.90000153  10.44999981  47.88999939
H    21.14999962  12.10999966  51.83000183
H    12.92000008  14.14000034  51.77999878
H    23.22999954  10.00000000  50.25000000
H    23.88000107  11.33999920  49.40999985
S    12.02999973  12.69000053  47.31999969
C     9.30999947  13.15999985  48.20000076
C    10.70000076  13.17000008  48.47000122
C    11.25000000  13.59000015  49.73999786
C    10.38000011  14.09000015  50.66999817
C     9.02999973  14.11999893  50.34000015
C     8.14999962  14.51000023  51.38999939
C     6.77999973  14.40000057  51.24000168
C     6.28999996  14.14000034  49.94999695
C     7.07000017  13.71000099  48.90999603
C     8.46000004  13.63000011  49.15999985
C    12.68000031  13.43999958  49.81999969
C    13.25000000  12.86999893  48.61000061
C    14.53999996  12.36999989  48.55999756
C     4.76000023  14.40000057  49.64000320
H     4.51801109  14.09395504  48.62222290
H     8.89000034  12.74000072  47.29000092
H    10.73999977  14.39000034  51.65999985
H     8.60000038  14.80999947  52.32999802
H     6.19000006  14.73999977  52.08000183
H     6.76000023  13.38999939  47.91999817
H    14.88000011  11.89000034  47.64999771
H     4.57999992  15.47000027  49.79999924
H     4.11999989  13.89000034  50.35999680
