96

S    12.43999958  17.75000000  44.31999969
C     9.77000046  18.02999878  44.87999725
C    11.03000069  17.60000038  45.28999710
C    11.31000042  17.13000107  46.55000305
C    10.34999943  17.01000023  47.49000168
C     9.00000000  17.29999924  47.09999847
C     7.86999989  16.97000122  47.97999954
C     6.56000042  17.36999893  47.63000107
C     6.34000015  18.02000046  46.39999771
C     7.40000010  18.26000023  45.59999847
C     8.71000004  17.85000038  45.84000015
C    12.79000092  16.93000031  46.75000000
C    13.50000000  17.21999931  45.63000107
C    14.85000038  17.19000053  45.63999939
C     5.00000000  18.53000069  45.91999817
H     4.45835829  17.88987732  45.22360229
H     9.52000046  18.38999939  43.88999939
H    10.59999943  16.84999847  48.54000092
H     8.19000053  16.52000046  48.92000198
H     5.68000031  17.30999947  48.26000214
H     7.34000015  18.89999962  44.72000122
H    15.39999962  17.34000015  44.72000122
H     4.39000034  18.70000076  46.81999969
H     5.18000031  19.48999977  45.43000031
S    15.90000057  15.80000019  49.22999954
C    18.52000046  15.38000011  48.36000061
C    17.22999954  15.80000019  48.09999847
C    16.94000053  16.45000076  46.84999847
C    17.98999977  16.47999954  45.90000153
C    19.27999878  16.11999893  46.14999771
C    20.27000046  16.31999969  45.17000198
C    21.54000092  15.93000031  45.52000046
C    21.77999878  15.38000011  46.77999878
C    20.88000107  15.25000000  47.71999741
C    19.56999969  15.62000084  47.43999863
C    15.51000023  16.84000015  46.76000214
C    14.78999996  16.50000000  47.91999817
C    13.38000107  16.54000092  47.90999985
C    23.05000114  14.75999928  47.18999863
H    23.41055489  15.17711258  48.13027573
H    18.82999992  14.98000050  49.31999969
H    17.78000069  16.80999947  44.88999939
H    20.05000114  16.61000061  44.15000153
H    22.34000015  15.75000000  44.79999924
H    21.18999863  14.73999977  48.62999725
H    12.82999992  16.27000046  48.81000137
H    23.78000069  14.78000069  46.36000061
H    22.86999893  13.68999958  47.35000229
S    11.92000008  17.56000137  51.16000366
C     9.22999954  17.60000038  51.72999954
C    10.51000023  17.35000038  52.15000153
C    10.90999985  16.97999954  53.48999786
C     9.92000008  16.86000061  54.45000076
C     8.53999996  17.07999992  54.02999878
C     7.48000050  17.13000107  54.95999908
C     6.24000025  17.61000061  54.68999863
C     5.88000011  17.98999977  53.36999893
C     6.90000010  17.90999985  52.41000366
C     8.23999977  17.56000137  52.71999741
C    12.36999989  16.93000031  53.56999969
C    13.03999996  17.19000053  52.39999771
C    14.44000053  17.11000061  52.25999832
C     4.44000006  18.30999947  52.97000122
H     4.03827763  17.83208847  52.07651520
H     8.96000004  17.97999954  50.75000000
H    10.14000034  16.52000046  55.45000076
H     7.72000027  16.92000008  56.00000000
H     5.49000025  17.59000015  55.47000122
H     6.65999985  18.19000053  51.38999939
H    15.00000000  17.46000099  51.39999771
H     3.81000018  17.97000122  53.80000305
H     4.26999998  19.38999939  53.02000046
S    15.59000015  15.98999977  55.94999695
C    18.20000076  15.29000092  55.10000229
C    16.93000031  15.80999947  54.81999969
C    16.60000038  16.28000069  53.52000427
C    17.68000031  16.46000099  52.60000229
C    19.00000000  16.14999962  52.88000107
C    20.12000084  16.20000076  51.97000122
C    21.38999939  15.75000000  52.22999954
C    21.56999969  15.06000042  53.47999954
C    20.52000046  14.94999981  54.36999893
C    19.23999977  15.47000027  54.15000153
C    15.14999962  16.62999916  53.41999817
C    14.44000053  16.43000031  54.61999893
C    13.03999996  16.39000130  54.65000153
C    23.00000000  14.55999947  53.79000092
H    23.40782928  15.05923748  54.66894150
H    18.38999939  14.68000031  55.97000122
H    17.53000069  16.75000000  51.56000137
H    19.93999863  16.54000092  50.94999695
H    22.20000076  15.92000008  51.52999878
H    20.63999939  14.37999916  55.28999710
H    12.53999901  15.90999985  55.48999786
H    23.52999878  14.65000057  52.84000015
H    22.89999962  13.48999977  53.97999573
