96

S    12.42000008  16.84000015  44.16999817
C     9.81000042  17.30999947  44.92000198
C    11.07999992  16.90000153  45.26000214
C    11.40999985  16.39000130  46.51000214
C    10.38000011  16.03999901  47.38999939
C     9.10000038  16.54000092  47.14000320
C     8.14000034  16.57999992  48.15000153
C     6.84000015  17.06999969  47.85999680
C     6.52999973  17.60000038  46.59000015
C     7.48000050  17.70000076  45.65000153
C     8.78999996  17.15999985  45.87999725
C    12.79999924  16.18999863  46.68000031
C    13.53000069  16.35000038  45.45999908
C    14.88999939  16.36000061  45.38999939
C     5.19999981  18.12999916  46.31000137
H     4.72475576  17.49161148  45.56521606
H     9.55000019  17.87999916  44.03999710
H    10.59999943  15.72000027  48.40000153
H     8.36000061  16.18999863  49.13000107
H     6.10000038  17.14999962  48.63999939
H     7.30000019  18.22999954  44.72000122
H    15.48999977  16.72000122  44.55999756
H     4.65999985  18.20999908  47.25999832
H     5.23999977  19.15999985  45.90999985
S    16.05999947  15.57999992  49.12000275
C    18.71000099  15.21000004  48.36000061
C    17.46000099  15.57999992  48.00000000
C    17.07999992  15.97000027  46.63999939
C    18.15000153  16.22999954  45.79000092
C    19.40000153  15.80999947  46.05999756
C    20.46999931  16.00000000  45.13000107
C    21.73000145  15.62000084  45.38999939
C    22.01000023  14.88000011  46.59000015
C    21.07000160  14.85999966  47.60000229
C    19.76000023  15.24000072  47.36999893
C    15.62000084  16.09000015  46.52999878
C    14.91000080  15.90000057  47.74000168
C    13.50999928  15.92000008  47.81000137
C    23.42000008  14.52000046  46.97999954
H    23.74681854  14.95575809  47.92414093
H    18.76000023  14.84000015  49.38000107
H    18.09000015  16.77999878  44.85000229
H    20.17000008  16.46000099  44.19000244
H    22.56000137  15.78999996  44.71000290
H    21.45000076  14.37999916  48.50999832
H    13.12000084  15.88000107  48.81999969
H    24.15999985  14.85999966  46.24000168
H    23.52999878  13.43000031  47.11000061
S    16.04999924  13.30999947  52.04999924
C    18.67000008  12.74000072  51.24000168
C    17.35999870  12.68000031  50.94999695
C    16.84000015  12.31999969  49.71000290
C    17.71999931  11.95000076  48.68000031
C    19.10000038  11.90000057  48.94000244
C    20.00000000  11.19999981  48.06000137
C    21.38999939  11.18000031  48.20999908
C    21.90999985  11.68000031  49.43000031
C    21.07000160  12.28000069  50.40000153
C    19.62000084  12.31999969  50.21999741
C    15.36999893  12.44999981  49.65999985
C    14.78999996  13.12999916  50.79999924
C    13.48000050  13.42000008  50.81999969
C    23.31999969  11.19999981  49.69999695
H    23.68388367  11.65664101  50.62041473
H    19.19999886  13.07999992  52.12999725
H    17.29999924  11.36000061  47.87000275
H    19.55000114  10.80000019  47.15000153
H    21.98999786  10.57000065  47.55000305
H    21.47000122  12.53000069  51.38999939
H    13.02000046  13.97999954  51.63000107
H    23.40999985  10.11999989  49.86999893
H    24.01000023  11.26999950  48.85000229
S    11.94000053  11.84000015  47.44999695
C     9.30000019  12.55000019  48.09999847
C    10.62999916  12.61000061  48.36999893
C    11.13000011  13.20000076  49.59000015
C    10.24000072  13.69999981  50.47000122
C     8.84000015  13.68999958  50.22999573
C     7.90999985  14.27999973  51.14999771
C     6.63999987  14.51000023  50.73999786
C     6.19999981  13.96999931  49.47999954
C     7.00999975  13.26000023  48.64999771
C     8.38999939  13.22000027  48.95999908
C    12.63000011  13.02999973  49.73999786
C    13.19000053  12.36999989  48.62999725
C    14.55999947  12.05999947  48.57999802
C     4.79999971  14.25000000  49.12000275
H     4.65308523  13.87921429  48.10559082
H     8.96000004  12.03999996  47.21000290
H    10.71000004  14.18000031  51.32999802
H     8.23000050  14.68000031  52.11000061
H     5.91000032  15.08999920  51.30000305
H     6.61000013  12.75000000  47.77000046
H    15.06999969  11.46000004  47.83000183
H     4.61999989  15.31999969  48.94000244
H     4.00999975  13.99000072  49.84000397
