96

S    12.39999962  16.79000092  44.34999847
C     9.77000046  17.17000008  44.94999695
C    10.98000050  16.65999985  45.34999847
C    11.25000000  16.28999901  46.72000122
C    10.21000004  16.46999931  47.65999603
C     8.90999985  16.98999977  47.27000427
C     7.76999998  17.01000023  48.18000031
C     6.56000042  17.43999863  47.74000168
C     6.38000011  17.86999893  46.40999603
C     7.40999985  17.86000061  45.48999786
C     8.73999977  17.34000015  45.89000320
C    12.69999981  16.22999954  46.91999817
C    13.43000031  16.48999977  45.72999954
C    14.85000038  16.61999893  45.73999786
C     5.00000000  18.22999954  45.94999695
H     4.69692755  17.52283096  45.17788315
H     9.68000031  17.69000053  44.00000000
H    10.34999943  16.28000069  48.72000122
H     7.86999989  16.55999947  49.16999817
H     5.64000034  17.35000038  48.30999756
H     7.28999996  18.15999985  44.45000076
H    15.36000061  16.77999878  44.79999924
H     4.28000021  18.09000015  46.77000046
H     4.92000008  19.27999878  45.61999893
S    15.98999977  15.92000008  49.40000153
C    18.53999901  15.43000031  48.60000229
C    17.28000069  15.98999977  48.36000061
C    16.97000122  16.46000099  47.05999756
C    17.89999962  16.50000000  46.07999802
C    19.20999908  15.97000027  46.27999878
C    20.07999802  15.78999996  45.22999573
C    21.28999901  15.34000015  45.44000244
C    21.67000008  14.88000011  46.70999908
C    20.79999924  14.92000008  47.78999710
C    19.50000000  15.44999981  47.55000305
C    15.54999924  16.52000046  46.93000031
C    14.84000015  16.14999962  48.09000015
C    13.43999958  16.11999893  48.15000153
C    23.12999916  14.56999969  46.93000031
H    23.36313057  14.97797775  47.91351700
H    18.71999931  14.82999992  49.47999954
H    17.61000061  16.80999947  45.07999802
H    19.57999992  16.05999947  44.29999924
H    21.97000122  15.21999931  44.59999847
H    21.12999916  14.68000031  48.80000305
H    12.86000061  16.05999947  49.06999969
H    23.71999931  15.06000042  46.14999771
H    23.31000137  13.48999977  47.02000046
S    11.75000000  17.50000000  51.14999771
C     9.15999985  17.71999931  51.90000153
C    10.42000008  17.29999924  52.21000290
C    10.72999954  16.84000015  53.48999786
C     9.73999977  16.73999977  54.40999985
C     8.45000076  17.22999954  54.15999985
C     7.36000013  17.10000038  55.06000137
C     6.09000015  17.69000053  54.84000397
C     5.80999947  18.11000061  53.50999832
C     6.81999969  18.07999992  52.58999634
C     8.18000031  17.68000031  52.83000183
C    12.18000031  16.92000008  53.66000366
C    12.90999985  17.14999962  52.49000168
C    14.32000065  17.12000084  52.48000336
C     4.44000006  18.53000069  53.02999878
H     4.10269022  17.83385086  52.26208115
H     9.06999969  17.94000053  50.84000015
H     9.89999962  16.10999870  55.27999878
H     7.42999983  16.42000008  55.90999985
H     5.32000017  17.61999893  55.61000061
H     6.63000011  18.53999901  51.63000107
H    14.85000038  17.11000061  51.52999878
H     3.78999996  18.55999947  53.92000198
H     4.63999987  19.55000114  52.65999603
S    15.21000004  15.88999939  56.03000259
C    17.88999939  15.36999893  55.43000031
C    16.67000008  15.97000027  55.04000092
C    16.42000008  16.54999924  53.79000092
C    17.42000008  16.54999924  52.88000107
C    18.75000000  16.07999992  53.25000000
C    19.88000107  16.17000008  52.35000229
C    21.11000061  15.62000084  52.63999939
C    21.21000099  14.91000080  53.77999878
C    20.17000008  14.73999977  54.66999817
C    18.94000053  15.38000011  54.50000000
C    15.03000069  16.97999954  53.66000366
C    14.27999973  16.72000122  54.81999969
C    12.86999893  16.82999992  54.80999756
C    22.60000038  14.60999966  54.22000122
H    22.89180565  15.00602245  55.19268417
H    17.95999908  14.70999908  56.29000092
H    17.10000038  17.00000000  51.93999863
H    19.67000008  16.61000061  51.37000275
H    21.90999985  15.59000015  51.90000153
H    20.35000038  14.32000065  55.65999985
H    12.43000031  16.64999962  55.79000092
H    23.36999893  14.88000011  53.48999786
H    22.63999939  13.52000046  54.27999878
