96

S    12.07999992  17.47999954  44.40000153
C     9.43000031  17.82999992  45.05000305
C    10.65999985  17.39999962  45.38999939
C    10.98000050  16.76000023  46.69000244
C     9.96000004  16.56999969  47.56000137
C     8.67999935  17.05999947  47.25999832
C     7.68000031  16.97000122  48.27999878
C     6.39999962  17.43000031  47.95999908
C     6.09000015  18.04000092  46.69000244
C     7.05999947  18.22999954  45.81999969
C     8.36999989  17.75000000  46.00999832
C    12.39999962  16.46000099  46.77999878
C    13.15000057  16.73999977  45.65000153
C    14.50000000  16.69999886  45.56999969
C     4.65999985  18.44000053  46.44000244
H     4.33653879  17.77151299  45.64213181
H     9.22999954  18.05999947  44.00000000
H    10.19000053  16.18999863  48.54999924
H     7.86000013  16.44000053  49.20999908
H     5.63000011  17.28999901  48.70999908
H     6.83000040  18.78000069  44.91000366
H    15.01999950  16.95000076  44.65000153
H     4.00000000  18.48999977  47.30999756
H     4.69000006  19.45999908  46.04000092
S    15.62999916  15.71000004  49.29000092
C    18.30000114  15.32999992  48.60000229
C    17.01000023  15.71000004  48.20999908
C    16.68000031  16.23999977  46.93999863
C    17.70000076  16.36999893  45.97000122
C    18.96999931  15.88000107  46.25999832
C    19.96999931  15.86999989  45.22999573
C    21.21999931  15.36000061  45.40999985
C    21.45000076  14.75000000  46.68000031
C    20.59999847  14.82999992  47.77000046
C    19.29999924  15.34999943  47.56999969
C    15.22999954  16.46999931  46.77000046
C    14.51000023  16.15999985  47.95000076
C    13.12000084  16.13000107  47.95000076
C    22.80999947  14.15999985  47.04999924
H    23.26782417  14.65474606  47.90657425
H    18.48999977  14.93999958  49.59999847
H    17.42000008  16.77999878  45.00999832
H    19.65999985  16.10000038  44.20999908
H    21.97999954  15.44999981  44.62999725
H    20.86999893  14.45000076  48.75000000
H    12.56000042  15.93000031  48.86000061
H    23.50000000  14.11000061  46.19999695
H    22.67999840  13.10999966  47.36000061
S    11.77000046  17.45000076  51.00999832
C     9.19000053  17.92000008  51.65000153
C    10.43000031  17.48999977  52.04000092
C    10.72999954  17.04000092  53.34999847
C     9.72000027  16.97000122  54.27000046
C     8.40999985  17.35999870  53.89999771
C     7.22000027  17.13000107  54.75000000
C     5.95000029  17.65999985  54.43999863
C     5.78000021  18.20999908  53.13999939
C     6.84000015  18.36000061  52.28000259
C     8.14999962  17.93000031  52.57999802
C    12.18999958  16.79999924  53.46000290
C    12.92000008  17.09000015  52.29000092
C    14.27000046  17.02999878  52.18999863
C     4.42000008  18.53000069  52.56000137
H     4.08777237  17.73830795  51.88847351
H     8.90999985  17.94999886  50.61000061
H     9.85000038  16.46000099  55.21999741
H     7.37999964  16.65999985  55.72000122
H     5.18000031  17.71999931  55.20000076
H     6.57999992  18.59000015  51.25000000
H    14.75000000  17.23999977  51.23000336
H     3.73000002  18.76000023  53.37999725
H     4.53999996  19.36000061  51.84999847
S    15.43000031  15.86999989  55.84999847
C    18.07999992  15.50000000  55.10000229
C    16.77999878  15.95000076  54.78000259
C    16.46999931  16.34000015  53.44999695
C    17.46000099  16.36000061  52.48000336
C    18.73999977  15.98999977  52.77999878
C    19.85000038  16.03999901  51.77000046
C    21.14999962  15.65999985  52.06999969
C    21.45000076  15.26999950  53.43000031
C    20.46999931  15.26999950  54.38999939
C    19.09000015  15.59999943  54.13000107
C    15.01000023  16.54999924  53.33000183
C    14.29999924  16.35000038  54.52999878
C    12.93000031  16.40999985  54.58000183
C    22.88000107  15.05000019  53.80000305
H    23.03661156  15.36322403  54.83221817
H    18.37000084  15.10000038  56.05999756
H    17.11000061  16.67000008  51.50000000
H    19.63000107  16.28000069  50.72999954
H    21.96000099  15.75000000  51.35000229
H    20.71000099  15.10000038  55.44000244
H    12.41000080  16.27000046  55.52999878
H    23.55999947  15.52000046  53.08000183
H    23.18000031  14.00000000  53.88000107
