96

S    12.46999931  16.76000023  44.01000214
C     9.81999969  17.20000076  44.73999786
C    11.03000069  16.68000031  45.05000305
C    11.39000034  16.22999954  46.38999939
C    10.34999943  16.21999931  47.32999802
C     9.06999969  16.67000008  47.00000000
C     8.02999973  16.64999962  47.97000122
C     6.84000015  17.28999901  47.69000244
C     6.57000017  17.64999962  46.38000107
C     7.48000050  17.57999992  45.38999939
C     8.76999950  17.18000031  45.70000076
C    12.84999943  16.18000031  46.59000015
C    13.52000046  16.46999931  45.34999847
C    14.96000099  16.51000023  45.30000305
C     5.15999985  18.04000092  46.00000000
H     4.79305792  17.44840050  45.16127396
H     9.68999958  17.64999962  43.75999832
H    10.47999954  15.86999989  48.34999847
H     8.23000050  16.31999969  48.97999573
H     6.12999964  17.36999893  48.50000000
H     7.27999973  18.00000000  44.40999985
H    15.47000027  16.63999939  44.34999847
H     4.51999998  17.89999962  46.88000107
H     5.10999966  19.11000061  45.79999924
S    16.06999969  15.31000042  48.89999771
C    18.71999931  15.00000000  48.11000061
C    17.45000076  15.36000061  47.74000168
C    17.07999992  15.88000107  46.49000168
C    18.04000092  15.81999969  45.56000137
C    19.37000084  15.29000092  45.84999847
C    20.45000076  15.32999992  44.93999863
C    21.77000046  15.01000023  45.27000046
C    22.06999969  14.72000027  46.63000107
C    21.09999847  14.84000015  47.61000061
C    19.72999954  15.07999992  47.19999695
C    15.70000076  16.21000099  46.40999603
C    15.00000000  15.84000015  47.60000229
C    13.63000011  15.85000038  47.75000000
C    23.52999878  14.32999992  47.02999878
H    23.77763367  14.54225731  48.07005692
H    19.04999924  14.56999969  49.06000137
H    17.71000099  16.13000107  44.56999969
H    20.29999924  15.64000034  43.90999603
H    22.56999969  15.14999962  44.54999924
H    21.34000015  14.68999958  48.66000366
H    13.14000034  15.67999935  48.70999908
H    24.15999985  14.88000011  46.31999969
H    23.65999985  13.27000046  46.76000214
S    16.28999901  12.84000015  52.29999924
C    19.02000046  12.30000019  51.40999603
C    17.64999962  12.34000015  51.17000198
C    17.13000107  11.94000053  49.85000229
C    18.05999947  11.47999954  48.88000107
C    19.47000122  11.51000023  49.19000244
C    20.28000069  10.95000076  48.23999786
C    21.59000015  10.67000008  48.44999695
C    22.14999962  11.19999981  49.68999863
C    21.35999870  11.94000053  50.61000061
C    19.90999985  11.97999954  50.40999985
C    15.72000027  12.05999947  49.78000259
C    15.14000034  12.61000061  50.94999695
C    13.81000042  13.03999996  50.96000290
C    23.62999916  10.81999969  50.05000305
H    23.94705200  11.24765205  51.00115585
H    19.40000153  12.71000004  52.35000229
H    17.64000130  11.14999962  47.93000031
H    19.70999908  10.72999954  47.34000397
H    22.17000008  10.06999969  47.76000214
H    21.77000046  12.35000038  51.52999878
H    13.36999989  13.32999992  51.90999985
H    23.75000000   9.72999954  49.97000122
H    24.31999969  11.13999939  49.26000214
S    12.58999920  12.05000019  47.35000229
C     9.85000038  12.56999969  48.11999893
C    11.23999977  12.61999989  48.36000061
C    11.69999981  13.09000015  49.61000061
C    10.77999973  13.60000038  50.51000214
C     9.43000031  13.55999947  50.27999878
C     8.47000027  13.90999985  51.25000000
C     7.09999990  13.99000072  51.03000259
C     6.61999989  13.76999950  49.71000290
C     7.55999994  13.30999947  48.81000137
C     8.92000008  13.12999916  49.02999878
C    13.09000015  12.86999893  49.79000092
C    13.63000011  12.27000046  48.64999771
C    14.93999958  11.87999916  48.66000366
C     5.22000027  14.25000000  49.36000061
H     4.82143497  13.65902424  48.53538513
H     9.46000004  12.30000019  47.14000320
H    11.18000031  13.89000034  51.47999573
H     8.85999966  14.14000034  52.23999786
H     6.38999987  14.40000057  51.72999954
H     7.30000019  13.20000076  47.76000214
H    15.34000015  11.46000004  47.74000168
H     5.19999981  15.31000042  49.08000183
H     4.57999992  14.09999943  50.24000168
