96

S    12.13999939  16.72999954  44.19000244
C     9.39000034  17.20000076  44.86999893
C    10.65999985  16.76000023  45.27999878
C    11.06999969  16.62999916  46.65000153
C    10.13000011  16.77999878  47.63000107
C     8.80000019  17.11000061  47.21000290
C     7.76000023  17.06999969  48.18999863
C     6.47000027  17.35999870  47.90999985
C     6.12999964  17.78000069  46.60999680
C     7.09000015  17.78000069  45.59000015
C     8.43999958  17.38000107  45.87999725
C    12.51000023  16.61000061  46.77999878
C    13.22000027  16.69999886  45.50000000
C    14.60000038  16.55999947  45.41999817
C     4.65000010  18.13999939  46.25000000
H     4.43279028  17.85038757  45.22187424
H     9.06999969  17.19000053  43.82999802
H    10.32999992  16.81999969  48.69999695
H     8.05000019  16.84999847  49.20999908
H     5.82000017  17.36999893  48.77999878
H     6.78999996  18.07999992  44.59000015
H    15.10000038  16.44000053  44.47000122
H     4.01999998  17.63000107  46.98999786
H     4.40000010  19.19999886  46.32999802
S    15.67999935  15.64000034  49.15999985
C    18.32999992  15.24000072  48.36999893
C    17.10000038  15.77999973  48.09000015
C    16.75000000  16.23999977  46.81999969
C    17.71999931  16.22999954  45.83000183
C    19.03000069  15.90999985  46.11999893
C    20.10999870  15.92000008  45.15999603
C    21.38000107  15.47000027  45.45000076
C    21.60000038  14.78999996  46.70000076
C    20.62999916  14.70000076  47.63999939
C    19.31999969  15.22999954  47.41000366
C    15.29000092  16.36000061  46.58000183
C    14.59000015  16.06999969  47.80000305
C    13.19000053  16.28000069  47.94000244
C    23.05000114  14.50000000  47.09000015
H    23.29252815  14.94939041  48.05297852
H    18.65999985  15.01000023  49.38000107
H    17.40999985  16.43000031  44.80999756
H    19.84000015  16.39999962  44.22000122
H    22.17000008  15.67000008  44.73999786
H    20.86999893  14.32000065  48.62999725
H    12.69000053  16.03000069  48.87000275
H    23.62999916  14.93999958  46.26999664
H    23.31000137  13.45000076  47.23999786
S    11.64999962  17.40999985  51.00000000
C     9.07999992  18.19000053  51.75000000
C    10.26000023  17.61000061  52.04999924
C    10.57000065  17.00000000  53.30999756
C     9.48999977  16.87999916  54.16999817
C     8.21000004  17.38999939  53.87000275
C     7.14999962  17.23999977  54.75000000
C     5.79999971  17.59000015  54.36000061
C     5.63000011  18.22000122  53.15999985
C     6.65999985  18.51000023  52.29000092
C     7.95000029  18.06999969  52.57999802
C    11.94000053  16.53000069  53.50999832
C    12.71000004  16.77000046  52.31999969
C    14.06000042  16.54000092  52.25999832
C     4.30999994  18.68999863  52.69000244
H     3.87848353  18.06040955  51.91185760
H     8.89000034  18.65999985  50.77999878
H     9.63999939  16.38000107  55.13000107
H     7.37999964  16.92000008  55.77000046
H     4.90000010  17.38999939  54.93000031
H     6.53999996  19.09000015  51.38000107
H    14.59000015  16.67000008  51.31999969
H     3.71000004  18.67000008  53.60000229
H     4.33999968  19.75000000  52.38999939
S    15.08999920  15.71000004  56.03000259
C    17.85000038  15.47000027  55.38999939
C    16.52000046  15.80999947  55.01999664
C    16.17000008  16.13000107  53.68000031
C    17.21999931  16.31999969  52.75000000
C    18.52000046  15.95999908  53.04000092
C    19.59000015  15.97000027  52.08000183
C    20.81999969  15.48999977  52.45999908
C    21.04999924  14.96000099  53.74000168
C    20.03999901  14.93999958  54.72000122
C    18.77000046  15.46000004  54.36999893
C    14.72000027  16.26000023  53.48999786
C    13.97999954  16.07999992  54.65000153
C    12.58999920  16.21000099  54.69999695
C    22.44999886  14.51000023  54.13000107
H    22.80743408  15.17482662  54.91635132
H    18.12000084  15.10000038  56.38000107
H    17.11000061  16.77999878  51.77000046
H    19.43000031  16.48999977  51.13999939
H    21.68000031  15.48999977  51.79999924
H    20.22999954  14.52000046  55.70000076
H    12.11999989  16.03999901  55.65999985
H    23.08000183  14.57999992  53.23999786
H    22.56000137  13.48999977  54.52000046
