96

S    12.07999992  17.46999931  44.19000244
C     9.34000015  17.94999886  44.75999832
C    10.57999992  17.46999931  45.13000107
C    10.86999989  16.87000084  46.42000198
C     9.90999985  16.79000092  47.36000061
C     8.64000034  17.22999954  47.02000046
C     7.59000015  17.01000023  47.95000076
C     6.34000015  17.47999954  47.70999908
C     6.05999994  18.02000046  46.44000244
C     6.97000027  18.15999985  45.45999908
C     8.30999947  17.77000046  45.72999954
C    12.28000069  16.62999916  46.63000107
C    13.09000015  16.90000153  45.50000000
C    14.44000053  16.69000053  45.40999985
C     4.61999989  18.32999992  46.07999802
H     4.24010658  17.71267319  45.26594162
H     9.26999950  18.30000114  43.74000168
H    10.00000000  16.35000038  48.34999847
H     7.85000038  16.61000061  48.93000031
H     5.50000000  17.46000099  48.39000320
H     6.86999989  18.57999992  44.47000122
H    14.91000080  16.77999878  44.43000031
H     3.91000009  18.25000000  46.90999985
H     4.65000010  19.38999939  45.77999878
S    15.26000023  15.72999954  49.15000153
C    17.86999893  15.24000072  48.54000092
C    16.64999962  15.72000027  48.13999939
C    16.45000076  16.22999954  46.83000183
C    17.50000000  16.28000069  45.90999985
C    18.76000023  15.90999985  46.31999969
C    19.88999939  16.02000046  45.47000122
C    21.09000015  15.57000065  45.83000183
C    21.31999969  14.94999981  47.09999847
C    20.29999924  14.84000015  48.02000046
C    18.96999931  15.36999893  47.69000244
C    15.06999969  16.45000076  46.58000183
C    14.27999973  16.21000099  47.75000000
C    12.90999985  16.18000031  47.70999908
C    22.70999908  14.40000057  47.42000198
H    23.26971054  14.98769665  48.14762497
H    17.95999908  14.73000050  49.48999786
H    17.28999901  16.56999969  44.87999725
H    19.70000076  16.29999924  44.43999863
H    21.91999817  15.60999966  45.13000107
H    20.46999931  14.29999924  48.95000076
H    12.38000011  15.71000004  48.53000259
H    23.25000000  14.37999916  46.45999908
H    22.69000053  13.38999939  47.84000015
S    12.05000019  16.97999954  50.84000015
C     9.40999985  17.70000076  51.44000244
C    10.57000065  17.10000038  51.75000000
C    10.76000023  16.54999924  53.08000183
C     9.72000027  16.54000092  53.96999741
C     8.50000000  17.18000031  53.66000366
C     7.40999985  17.28000069  54.61999893
C     6.19999981  17.79000092  54.25000000
C     5.92999983  18.23999977  52.91999817
C     6.98999977  18.20000076  52.02000046
C     8.30999947  17.69000053  52.35000229
C    12.20999908  16.39000130  53.36000061
C    13.02000046  16.69999886  52.21000290
C    14.35999966  16.72000122  52.25999832
C     4.53999996  18.40999985  52.42000198
H     4.18837452  17.60949135  51.76912308
H     9.32999992  18.12000084  50.44000244
H     9.82999992  16.13999939  54.98000336
H     7.50999975  16.84000015  55.61000061
H     5.32000017  17.86000061  54.87999725
H     6.70000029  18.38000107  50.98999786
H    14.85999966  16.88999939  51.31999969
H     3.86000013  18.68000031  53.23999786
H     4.51000023  19.27999878  51.75000000
S    15.32999992  15.88999939  55.98999786
C    18.04000092  15.39000034  55.31000137
C    16.77000046  15.85999966  54.98000336
C    16.45000076  16.25000000  53.56999969
C    17.40999985  16.28999901  52.60000229
C    18.71000099  15.90999985  52.94000244
C    19.70999908  16.05999947  51.97000122
C    20.98999977  15.57000065  52.25999832
C    21.31000137  15.08999920  53.57999802
C    20.30999947  15.01000023  54.48999786
C    19.00000000  15.46000004  54.27000046
C    15.01999950  16.48999977  53.43000031
C    14.32999992  16.26000023  54.59999847
C    12.93000031  16.27000046  54.58000183
C    22.70999908  14.75999928  53.87000275
H    23.04144096  15.30503750  54.75384521
H    18.25000000  15.00000000  56.31000137
H    17.15999985  16.63999939  51.59999847
H    19.51000023  16.54000092  51.02000427
H    21.77999878  15.65000057  51.51000214
H    20.50000000  14.60999966  55.47999954
H    12.41000080  16.27000046  55.52999878
H    23.32999992  15.06000042  53.01000214
H    22.78000069  13.68000031  54.02999878
