96

S    12.10999966  17.28000069  44.50000000
C     9.34000015  17.18000031  45.06999969
C    10.65999985  17.00000000  45.51000214
C    11.09000015  16.56999969  46.84000015
C    10.07999992  16.46999931  47.70000076
C     8.73000050  16.72999954  47.30999756
C     7.75000000  16.84000015  48.30999756
C     6.44999981  17.06999969  48.01000214
C     6.01999998  17.32999992  46.69000244
C     7.00999975  17.38000107  45.70000076
C     8.31999969  17.07999992  46.00000000
C    12.56000042  16.56999969  46.93000031
C    13.28999996  16.93000031  45.77000046
C    14.63000107  17.10000038  45.70999908
C     4.57999992  17.70000076  46.33999634
H     4.35459661  17.62251854  45.27637482
H     9.19000053  17.77000046  44.15999985
H    10.26000023  16.32999992  48.75999832
H     8.10999966  16.67000008  49.33000183
H     5.69000006  17.20000076  48.77999878
H     6.72999954  17.87999916  44.78000259
H    15.07999992  17.42000008  44.77000427
H     3.88000011  17.13999939  46.97999954
H     4.44999981  18.73999977  46.65000153
S    15.72999954  15.90999985  49.29000092
C    18.42000008  15.53999996  48.50999832
C    17.13999939  15.98000050  48.16999817
C    16.86000061  16.47999954  46.86999893
C    17.84000015  16.54999924  45.93999863
C    19.12999916  16.18999863  46.26999664
C    20.13999939  15.98000050  45.31999969
C    21.40000153  15.50000000  45.68000031
C    21.73999977  15.14000034  46.95999908
C    20.71000099  15.21000004  47.91999817
C    19.45000076  15.73999977  47.61000061
C    15.36000061  16.72999954  46.81000137
C    14.70000076  16.46000099  48.02000046
C    13.28999996  16.38000107  48.09999847
C    23.15999985  14.68000031  47.15999985
H    23.39248657  15.08156681  48.14630508
H    18.63999939  15.03000069  49.45000076
H    17.43000031  16.69999886  44.93999863
H    19.97999954  16.27000046  44.27999878
H    22.18000031  15.43000031  44.93000031
H    20.76000023  14.73000050  48.88999939
H    12.71999931  16.09000015  48.96999741
H    23.78000069  15.06999969  46.33999634
H    23.22999954  13.59000015  47.18000031
S    16.20000076  13.40000057  52.15000153
C    18.81000137  12.76999950  51.24000168
C    17.43999863  12.81000042  51.06999969
C    16.95999908  12.43000031  49.79999924
C    17.78000069  11.97999954  48.77999878
C    19.14999962  11.72999954  49.02000046
C    20.06000137  11.18000031  48.06999969
C    21.38999939  11.05000019  48.36000061
C    21.91999817  11.36999989  49.68000031
C    21.09000015  11.89000034  50.61999893
C    19.70999908  12.13000107  50.33000183
C    15.54999924  12.68000031  49.68999863
C    15.00000000  13.17000008  50.87999725
C    13.63000011  13.45999908  51.03000259
C    23.31999969  10.98999977  50.13000107
H    23.53370857  11.24055481  51.16906357
H    19.19999886  13.07000065  52.21000290
H    17.46000099  11.54999924  47.83000183
H    19.73999977  10.88999939  47.06999969
H    22.01999855  10.54999924  47.63999939
H    21.35000038  12.18999958  51.63000107
H    13.26000023  13.81000042  51.97999954
H    23.42000008   9.90999985  50.00999832
H    24.06999969  11.51999950  49.51000214
S    12.20999908  12.58999920  47.42000198
C     9.51000023  12.94999981  48.13999939
C    10.84000015  13.02999973  48.47000122
C    11.33999920  13.35999966  49.75999832
C    10.42000008  13.78000069  50.68000031
C     9.03999996  13.82999992  50.40999985
C     8.15999985  14.40000057  51.29000092
C     6.78999996  14.42000008  51.00999832
C     6.26999950  13.89999962  49.77000427
C     7.13999987  13.35999966  48.82999802
C     8.56000042  13.34000015  49.13000107
C    12.76000023  13.32999992  49.87999725
C    13.35999966  12.79999924  48.68999863
C    14.68000031  12.38000011  48.64999771
C     4.80999994  14.22000027  49.34999847
H     4.61797905  13.89996433  48.32588577
H     9.18000031  12.74000072  47.11999893
H    10.75000000  14.22000027  51.62000275
H     8.46000004  14.80999947  52.25000000
H     6.24000025  14.98000050  51.75000000
H     6.76000023  12.86999893  47.94000244
H    15.03999901  11.84000015  47.77999878
H     4.76000023  15.31000042  49.27999878
H     4.09999990  13.71999931  50.00999832
