96

S    12.46000099  16.79000092  44.34000015
C     9.90999985  17.39999962  45.07999802
C    11.09000015  16.84000015  45.38999939
C    11.43000031  16.34000015  46.70999908
C    10.38000011  16.25000000  47.63999939
C     9.06999969  16.77999878  47.31999969
C     7.96999979  16.70999908  48.27999878
C     6.71999979  17.13999939  47.90999985
C     6.56000042  17.80999947  46.60999680
C     7.67000008  18.01000023  45.75000000
C     8.90999985  17.38999939  46.06999969
C    12.81999969  16.04999924  46.81999969
C    13.53000069  16.28999901  45.65000153
C    14.84000015  16.28000069  45.52000046
C     5.23000002  18.22000122  46.09000397
H     4.86827993  17.49655914  45.35932541
H     9.57999992  17.94000053  44.19000244
H    10.62000084  16.04999924  48.68000031
H     8.02999973  16.36000061  49.31000137
H     5.88000011  17.13000107  48.61000061
H     7.59000015  18.40999985  44.73999786
H    15.24000072  16.36999893  44.51000214
H     4.51999998  18.51000023  46.88000107
H     5.28999996  19.14999962  45.50000000
S    16.02000046  15.29999924  49.18000031
C    18.67000008  14.85999966  48.33000183
C    17.40999985  15.34000015  48.00000000
C    17.05999947  15.93000031  46.79999924
C    18.13999939  15.97000027  45.86000061
C    19.45999908  15.65000057  46.13999939
C    20.56999969  15.80000019  45.24000168
C    21.81999969  15.24000072  45.47999954
C    22.01000023  14.77000046  46.79000092
C    21.02000046  14.57999992  47.70999908
C    19.70999908  14.96999931  47.38999939
C    15.62999916  16.04999924  46.65000153
C    14.91000080  15.76000023  47.87000275
C    13.55999947  15.84000015  47.98999786
C    23.45999908  14.44000053  47.15999985
H    23.69975090  14.88424397  48.12605667
H    18.96000099  14.60999966  49.34999847
H    17.88999939  16.22999954  44.82999802
H    20.28000069  16.31000137  44.33000183
H    22.59000015  15.32999992  44.72000122
H    21.34000015  14.35999966  48.73000336
H    13.10999966  16.09000015  48.95000076
H    24.23000145  14.73999977  46.45000076
H    23.52000046  13.35000038  47.14000320
S    11.77000046  16.95999908  51.02000427
C     9.19000053  17.56999969  51.93999863
C    10.46000004  17.07999992  52.16999817
C    10.88000107  16.70999908  53.44999695
C     9.89999962  16.72000122  54.45999908
C     8.63000011  17.27000046  54.27999878
C     7.57000017  17.07999992  55.27999878
C     6.23000050  17.32999992  54.97000122
C     5.95000029  17.79999924  53.72000122
C     6.90999985  18.11000061  52.81000137
C     8.23999977  17.70000076  52.97000122
C    12.28000069  16.36999893  53.56999969
C    12.97000027  16.54000092  52.32999802
C    14.27999973  16.62999916  52.23999786
C     4.48999977  18.04000092  53.39000320
H     4.15767717  17.44759941  52.53752518
H     8.86999989  17.86999893  50.94999695
H    10.18000031  16.23999977  55.40000153
H     7.76000023  16.60000038  56.23000336
H     5.46000004  17.14999962  55.70999908
H     6.63999987  18.53999901  51.84000015
H    14.75999928  16.87000084  51.30000305
H     3.89999986  17.76000023  54.27000046
H     4.34999990  19.11999893  53.27000046
S    15.54999924  15.92000008  55.89000320
C    18.17000008  15.43000031  55.12000275
C    16.90000153  15.76000023  54.75999832
C    16.52000046  16.10000038  53.43000031
C    17.53999901  16.11999893  52.47000122
C    18.84000015  15.67000008  52.78999710
C    19.86999893  15.67000008  51.86000061
C    21.21000099  15.38000011  52.15999985
C    21.59000015  15.14000034  53.50999832
C    20.53999901  15.07999992  54.43999863
C    19.19999886  15.38000011  54.13000107
C    15.11000061  16.31999969  53.33000183
C    14.40999985  16.14999962  54.54999924
C    13.03999996  16.13000107  54.68999863
C    22.98999977  15.01999950  53.92000198
H    23.11134720  15.18417549  54.99071121
H    18.36000061  15.21000004  56.17000198
H    17.32999992  16.44000053  51.45000076
H    19.63999939  16.13999939  50.90999985
H    21.96000099  15.36000061  51.36000061
H    20.78000069  14.82999992  55.47000122
H    12.51999950  16.05999947  55.63999939
H    23.57000160  15.72000027  53.29999924
H    23.29000092  14.01999950  53.59000397
