96

S    12.51000023  16.82999992  44.36999893
C     9.81000042  17.18000031  44.99000168
C    11.05000019  16.68000031  45.28999710
C    11.39999962  16.21000099  46.63999939
C    10.43000031  16.21000099  47.63000107
C     9.09000015  16.57999992  47.34000397
C     7.99000025  16.57999992  48.22000122
C     6.76000023  17.09000015  47.91999817
C     6.48000002  17.64000130  46.60999680
C     7.53000021  17.60000038  45.70999908
C     8.82999992  17.13999939  46.00000000
C    12.86000061  16.10000038  46.88000107
C    13.55000019  16.31999969  45.70000076
C    14.94999981  16.31000137  45.65999985
C     5.10999966  18.13999939  46.23000336
H     4.81821871  17.57033157  45.34770966
H     9.53999996  17.78000069  44.13000107
H    10.69000053  15.80999947  48.60000229
H     8.21000004  16.20000076  49.22000122
H     5.98999977  17.17000008  48.68000031
H     7.26000023  17.68000031  44.65999985
H    15.43000031  16.61999893  44.73999786
H     4.46000004  17.95999908  47.09000015
H     5.17000008  19.20999908  45.97999954
S    16.02000046  15.21000004  49.36000061
C    18.65999985  14.84000015  48.57999802
C    17.40999985  15.34999943  48.29000092
C    17.13999939  15.85000038  47.00000000
C    18.12999916  15.88999939  46.00999832
C    19.44000053  15.44000053  46.33999634
C    20.48999977  15.60999966  45.38000107
C    21.75000000  15.15999985  45.65999985
C    22.09000015  14.56999969  46.91999817
C    21.07999992  14.42999935  47.90000153
C    19.70999908  14.78999996  47.60000229
C    15.72000027  16.05999947  46.81000137
C    15.01000023  15.84000015  48.02000046
C    13.59000015  15.80000019  48.04000092
C    23.50000000  14.46000004  47.35000229
H    23.78193474  15.05825233  48.21643448
H    18.86000061  14.55000019  49.61000061
H    18.13999939  16.25000000  44.98000336
H    20.17999840  16.21999931  44.54000092
H    22.52000046  15.31999969  44.91000366
H    21.38999939  14.23999977  48.93000031
H    13.17000008  15.54999924  49.01000214
H    24.17000008  14.59000015  46.49000168
H    23.74000168  13.43000031  47.64999771
S    11.51999950  16.56999969  51.06999969
C     8.98999977  17.34000015  52.02000046
C    10.21000004  16.77000046  52.23999786
C    10.60999966  16.38000107  53.50000000
C     9.72000027  16.53000069  54.56999969
C     8.42000008  16.90999985  54.36000061
C     7.42000008  16.90999985  55.31999969
C     6.11000013  17.13999939  54.97000122
C     5.66999960  17.56999969  53.66000366
C     6.71999979  17.88999939  52.80000305
C     8.05999947  17.40999985  53.04000092
C    12.07999992  16.18999863  53.69999695
C    12.69000053  16.28000069  52.44999695
C    14.13000011  16.27000046  52.36999893
C     4.23999977  17.79000092  53.27000046
H     4.02524710  17.54060936  52.23087311
H     8.71000004  17.63000107  51.00999832
H     9.98999977  16.04999924  55.50000000
H     7.75000000  16.62999916  56.31999969
H     5.36000013  16.97999954  55.75000000
H     6.53999996  18.22000122  51.77999878
H    14.55999947  16.27000046  51.37000275
H     3.51000023  17.21999931  53.87000275
H     3.96000004  18.81999969  53.50999832
S    15.46000004  15.76000023  56.13999939
C    18.06999969  15.47999954  55.33000183
C    16.77999878  15.72000027  55.00000000
C    16.34000015  15.93999958  53.68000031
C    17.30999947  16.03000069  52.70000076
C    18.68999863  15.81999969  52.97000122
C    19.70000076  16.01000023  52.02000046
C    21.00000000  15.80000019  52.43000031
C    21.32999802  15.22999954  53.72000122
C    20.45999908  15.29000092  54.75999832
C    19.07999992  15.55999947  54.34999847
C    14.91000080  16.09000015  53.54999924
C    14.27000046  15.92000008  54.79999924
C    12.89000034  15.98999977  54.86000061
C    22.73999977  14.78999996  54.02000046
H    23.03377914  15.44921017  54.83684540
H    18.23999977  15.15999985  56.35000229
H    17.02999878  16.29999924  51.68000031
H    19.45999908  16.27000046  51.00000000
H    21.77000046  16.03999901  51.70999908
H    20.62000084  15.07999992  55.80999756
H    12.34000015  15.84000015  55.77999878
H    23.38999939  14.80999947  53.13999939
H    22.72999954  13.76000023  54.40999985
