96

S    12.05000019  17.19000053  44.06999969
C     9.36999989  17.46000099  44.82999802
C    10.65000057  17.10000038  45.20000076
C    11.10000038  16.76000023  46.52999878
C    10.11999989  16.67000008  47.52999878
C     8.78999996  17.02000046  47.15999985
C     7.75000000  16.98999977  48.06999969
C     6.47000027  17.26000023  47.74000168
C     6.15000010  17.79999924  46.49000168
C     7.18999958  17.92000008  45.51000214
C     8.46000004  17.47999954  45.83000183
C    12.53000069  16.69000053  46.68000031
C    13.17999935  16.84999847  45.40000153
C    14.55000019  16.69000053  45.33000183
C     4.78999996  18.34000015  46.11999893
H     4.35418081  17.63003540  45.41706848
H     9.07999992  17.79999924  43.83999634
H    10.36999893  16.57999992  48.59000397
H     7.77999973  16.56999969  49.08000183
H     5.69999981  17.28000069  48.50000000
H     6.98999977  18.27000046  44.51000214
H    15.01999950  16.86000061  44.36999893
H     4.25000000  18.46999931  47.06999969
H     4.90000010  19.36000061  45.72999954
S    15.71000004  15.81999969  49.01000214
C    18.36000061  15.22999954  48.20000076
C    17.06999969  15.72999954  47.90000153
C    16.72999954  16.07999992  46.59000015
C    17.69000053  16.10000038  45.58000183
C    19.04999924  15.70000076  45.86999893
C    20.03999901  15.64000034  44.84000397
C    21.21999931  15.01999950  45.15999603
C    21.56999969  14.65000057  46.47999573
C    20.66999817  14.80999947  47.50000000
C    19.36000061  15.21999931  47.22999954
C    15.32999992  16.29999924  46.42000198
C    14.61999989  16.31000137  47.63999939
C    13.23999977  16.47999954  47.81999969
C    22.96999931  14.34000015  46.88000107
H    23.28809547  14.83097267  47.79970932
H    18.72999954  15.00000000  49.20000076
H    17.32999992  16.31999969  44.58000183
H    19.88000107  16.03000069  43.83999634
H    21.98999786  14.86999989  44.40999985
H    21.01000023  14.47000027  48.47999954
H    12.71999931  16.31000137  48.75999832
H    23.61999893  14.55000019  46.03000259
H    23.03999901  13.26000023  47.05999756
S    11.75000000  17.27000046  51.03000259
C     9.07999992  17.71999931  51.86000061
C    10.32999992  17.20000076  52.05999756
C    10.72000027  16.86000061  53.40000153
C     9.81999969  16.72000122  54.40000153
C     8.47000027  16.95999908  54.13000107
C     7.44999981  16.92000008  55.15999603
C     6.28999996  17.46999931  54.99000168
C     5.91000032  17.98999977  53.72000122
C     6.80999994  18.06999969  52.67000198
C     8.15999985  17.60000038  52.85999680
C    12.20000076  16.79000092  53.52000427
C    12.89000034  17.00000000  52.30999756
C    14.26000023  16.79999924  52.15999985
C     4.48000002  18.39999962  53.48999786
H     4.17289686  17.86622620  52.59062576
H     8.84000015  18.09000015  50.86000061
H    10.14000034  16.43000031  55.40000153
H     7.73000002  16.61999893  56.17000198
H     5.56999969  17.56999969  55.79000092
H     6.52999973  18.26000023  51.63000107
H    14.78999996  17.07999992  51.25000000
H     3.75000000  18.17000008  54.27999878
H     4.55000019  19.48999977  53.43000031
S    15.27999973  15.69000053  55.72000122
C    17.95999908  15.26000023  54.94999695
C    16.65999985  15.59000015  54.65999985
C    16.35000038  16.10999870  53.36000061
C    17.36999893  16.34000015  52.47000122
C    18.71999931  15.98999977  52.76000214
C    19.80999947  16.13999939  51.83000183
C    21.09999847  15.69000053  52.18999863
C    21.34000015  15.01999950  53.43000031
C    20.30999947  14.96999931  54.31999969
C    18.98999977  15.47999954  54.05000305
C    14.92000008  16.44000053  53.29000092
C    14.18000031  16.20000076  54.45999908
C    12.89999962  16.47999954  54.65000153
C    22.70000076  14.48999977  53.80000305
H    22.96785355  14.75785160  54.82206345
H    18.15999985  14.70000076  55.86000061
H    17.21999931  16.79000092  51.50000000
H    19.55000114  16.65999985  50.90999985
H    21.94999886  15.93000031  51.55000305
H    20.48000145  14.51000023  55.28999710
H    12.39999962  16.23999977  55.58000183
H    23.38000107  15.00000000  53.11000061
H    22.60000038  13.40000057  53.72000122
