96

S    12.30000019  16.70999908  44.29000092
C     9.61000061  16.95000076  44.89999771
C    10.84000015  16.50000000  45.28999710
C    11.14999962  16.17000008  46.60999680
C    10.07999992  16.18000031  47.41000366
C     8.86999989  16.77999878  47.12999725
C     7.78999996  16.80999947  48.06000137
C     6.61999989  17.35000038  47.71999741
C     6.37000036  17.79999924  46.42000198
C     7.32999992  17.77000046  45.44000244
C     8.57999992  17.19000053  45.79999924
C    12.56000042  16.21000099  46.88000107
C    13.28999996  16.50000000  45.70000076
C    14.65999985  16.69000053  45.68999863
C     4.90000010  18.22999954  46.11000061
H     4.61575460  17.93154144  45.10092926
H     9.48000050  17.25000000  43.86000061
H    10.10000038  15.67000008  48.36000061
H     7.92000008  16.44000053  49.06999969
H     5.88000011  17.35999870  48.52000427
H     7.13000011  18.15999985  44.43999863
H    15.11000061  16.62999916  44.69999695
H     4.19000006  17.71000099  46.76000214
H     4.96000004  19.32999992  46.18999863
S    15.75000000  15.42000008  49.33000183
C    18.37000084  14.89999962  48.40000153
C    17.12000084  15.52999973  48.22000122
C    16.82999992  16.28999901  47.02000046
C    17.73999977  16.17000008  45.97999954
C    19.01000023  15.60999966  46.13999939
C    19.93999863  15.57999992  45.08999634
C    21.11999893  14.92000008  45.31000137
C    21.42999840  14.35999966  46.55000305
C    20.53999901  14.22000027  47.56999969
C    19.29000092  14.92000008  47.36999893
C    15.36000061  16.47999954  46.88999939
C    14.67000008  16.09000015  48.04000092
C    13.30000019  15.93000031  48.01000214
C    22.79999924  14.04999924  46.97000122
H    23.13341141  14.62050343  47.83686829
H    18.57999992  14.40000057  49.34000015
H    17.34000015  16.46999931  45.01999664
H    19.51000023  15.92000008  44.15000153
H    21.88999939  15.01000023  44.54999924
H    20.86999893  13.94000053  48.56999969
H    12.72999954  15.52000046  48.83999634
H    23.45000076  14.11000061  46.09000397
H    22.76000023  13.00000000  47.25999832
S    11.67000008  16.94000053  50.63999939
C     8.93999958  17.43000031  51.45000076
C    10.21000004  16.97999954  51.72999954
C    10.53999996  16.55999947  53.02999878
C     9.51000023  16.48999977  54.02000046
C     8.18000031  16.82999992  53.68999863
C     7.11999989  16.90000153  54.65000153
C     5.92999983  17.46999931  54.34999847
C     5.66999960  17.97999954  53.06000137
C     6.65000010  17.85000038  52.08000183
C     7.95000029  17.36999893  52.39999771
C    12.00000000  16.31999969  53.20999908
C    12.81000042  16.60000038  52.04999924
C    14.21000004  16.62999916  52.09999847
C     4.32999992  18.35000038  52.60000229
H     3.94290638  17.61882401  51.89032745
H     8.67000008  17.69000053  50.43000031
H     9.78999996  16.20000076  55.02999878
H     7.30999994  16.51000023  55.65000153
H     5.09999990  17.45000076  55.05000305
H     6.32999992  18.15000153  51.09000397
H    14.80999947  16.93000031  51.25000000
H     3.75000000  18.45999908  53.52000427
H     4.34999990  19.36000061  52.18000031
S    14.94999981  15.42000008  55.77999878
C    17.72999954  15.14999962  55.20999908
C    16.46000099  15.44000053  54.81999969
C    16.21999931  15.98000050  53.53000259
C    17.29999924  16.09000015  52.67000198
C    18.56999969  15.64000034  52.93000031
C    19.67000008  15.65999985  52.04999924
C    20.92000008  15.07999992  52.23999786
C    21.11000061  14.59000015  53.55999756
C    20.13000107  14.68999958  54.51000214
C    18.81000137  15.15999985  54.27999878
C    14.85999966  16.22999954  53.25000000
C    14.04999924  15.95000076  54.38999939
C    12.67000008  15.95000076  54.36000061
C    22.47999954  14.14999962  54.02000046
H    22.80425072  14.66339779  54.92519760
H    17.90999985  14.80000019  56.23000336
H    17.13999939  16.61000061  51.72999954
H    19.48999977  16.11999893  51.09000397
H    21.75000000  15.13000011  51.52999878
H    20.17000008  14.34000015  55.54000092
H    12.05000019  15.80000019  55.24000168
H    23.18000031  14.18000031  53.18000031
H    22.46000099  13.07999992  54.27000046
