96

S    12.31999969  16.87999916  44.15000153
C     9.71000004  17.30999947  45.01999664
C    10.98000050  16.95999908  45.30000305
C    11.33999920  16.56999969  46.63999939
C    10.31999969  16.39999962  47.62000275
C     9.02000046  16.84000015  47.34000397
C     7.96000004  16.90000153  48.23999786
C     6.69000053  17.28000069  47.90000153
C     6.37000036  17.71999931  46.59999847
C     7.39000034  17.71000099  45.68999863
C     8.67000008  17.28999901  46.00000000
C    12.71999931  16.36999893  46.70000076
C    13.43000031  16.46000099  45.47000122
C    14.80000019  16.34000015  45.40000153
C     4.92000008  17.97000122  46.27999878
H     4.58408594  17.37679100  45.42949295
H     9.40999985  17.60000038  44.01000214
H    10.48999977  15.97000027  48.60000229
H     8.07999992  16.59000015  49.27000046
H     5.92000008  17.20999908  48.64999771
H     7.26999998  17.93000031  44.62999725
H    15.31000042  16.60000038  44.47999954
H     4.36999989  17.71999931  47.18999863
H     4.69999981  19.03000069  46.10000229
S    15.85000038  15.52000046  49.13000107
C    18.57999992  15.26000023  48.43999863
C    17.23999977  15.55999947  48.09999847
C    16.87999916  16.07999992  46.77999878
C    17.89999962  16.27000046  45.80999756
C    19.19000053  15.88999939  46.13999939
C    20.10999870  15.80999947  45.12000275
C    21.38999939  15.36000061  45.27999878
C    21.87000084  15.17000008  46.59000015
C    20.96999931  15.11999989  47.61000061
C    19.55999947  15.39000034  47.44999695
C    15.50000000  16.10000038  46.59000015
C    14.80999947  16.02000046  47.78999710
C    13.43000031  16.10000038  47.87000275
C    23.34000015  14.85999966  46.84000015
H    23.51880455  15.04568291  47.89907837
H    18.86999893  15.06000042  49.45999908
H    17.56000137  16.40999985  44.78000259
H    19.65999985  16.02000046  44.15000153
H    22.06999969  15.22999954  44.45000076
H    21.27000046  14.73999977  48.57999802
H    13.12999916  16.02000046  48.90999603
H    23.97000122  15.55999947  46.27999878
H    23.57999992  13.88000011  46.40999603
S    12.11999989  16.95999908  50.90000153
C     9.51000023  17.61000061  51.58000183
C    10.75000000  17.22999954  51.98999786
C    11.05999947  16.97999954  53.37999725
C    10.03999901  16.84999847  54.29999924
C     8.76000023  17.19000053  53.88999939
C     7.73000002  17.18000031  54.79999924
C     6.44000006  17.43999863  54.50000000
C     6.09000015  17.72999954  53.11000061
C     7.07000017  17.79000092  52.16999817
C     8.47000027  17.56000137  52.52999878
C    12.48999977  16.86000061  53.53000259
C    13.15999985  16.97999954  52.29999924
C    14.55000019  17.00000000  52.22999954
C     4.74000025  18.27999878  52.77999878
H     4.30134010  17.70974159  51.96116638
H     9.26000023  17.87999916  50.56000137
H    10.36999893  16.57999992  55.30000305
H     7.90999985  16.88999939  55.83000183
H     5.78999996  17.53000069  55.35999680
H     6.85999966  18.26000023  51.22000122
H    15.11999989  16.95999908  51.31000137
H     4.13000011  18.15000153  53.68000031
H     4.85000038  19.31999969  52.47000122
S    15.62000084  16.39999962  56.06999969
C    18.31999969  15.95000076  55.41999817
C    17.05999947  16.34000015  55.04000092
C    16.77000046  16.76000023  53.64999771
C    17.84000015  16.69999886  52.70000076
C    19.13999939  16.18999863  53.08000183
C    20.15999985  15.95000076  52.06999969
C    21.34000015  15.38000011  52.50000000
C    21.61000061  15.10000038  53.85000229
C    20.65999985  15.36999893  54.82999802
C    19.34999847  15.85000038  54.50000000
C    15.29999924  16.97999954  53.43999863
C    14.60999966  16.84999847  54.65999985
C    13.22999954  16.75000000  54.69999695
C    22.95000076  14.70999908  54.34999847
H    23.31065369  15.37473583  55.13495255
H    18.34000015  15.44000053  56.38999939
H    17.64000130  16.94000053  51.65999985
H    19.93000031  16.25000000  51.04999924
H    22.01000023  15.15999985  51.68000031
H    20.86999893  15.03999901  55.84000015
H    12.71000004  16.61999893  55.65000153
H    23.64999962  14.73000050  53.50999832
H    22.92000008  13.64999962  54.62999725
