96

S    12.50000000  17.14999962  44.27000046
C     9.81999969  17.43999863  44.81999969
C    11.09000015  17.04000092  45.24000168
C    11.46000004  16.59000015  46.53999710
C    10.39999962  16.56999969  47.51999664
C     9.15000057  16.97000122  47.12999725
C     8.10999966  17.04000092  48.11000061
C     6.80999994  17.46999931  47.81000137
C     6.53999996  17.81999969  46.52000046
C     7.53999996  17.94000053  45.58000183
C     8.82999992  17.46000099  45.80999756
C    12.88000011  16.43000031  46.72000122
C    13.60000038  16.72000122  45.51000214
C    14.98000050  16.95999908  45.44000244
C     5.14999962  18.44000053  46.13999939
H     4.65409470  17.71680450  45.49256897
H     9.77000046  17.86999893  43.82999802
H    10.60999966  16.45000076  48.57999802
H     8.38999939  16.82999992  49.13999939
H     6.01999998  17.64999962  48.53000259
H     7.27999973  18.43000031  44.65000153
H    15.51000023  17.14999962  44.51000214
H     4.59000015  18.68999863  47.04999924
H     5.19000006  19.40000153  45.59999847
S    16.01000023  15.65999985  49.09999847
C    18.55999947  15.15999985  48.29999924
C    17.34000015  15.72000027  48.02000046
C    17.05000114  16.28999901  46.72000122
C    18.07999992  16.32999992  45.80999756
C    19.30999947  15.81999969  46.12999725
C    20.43999863  15.98000050  45.27000046
C    21.70000076  15.51000023  45.59000015
C    21.91999817  14.75999928  46.72000122
C    20.90999985  14.61999989  47.67000198
C    19.56999969  15.15999985  47.36999893
C    15.67000008  16.61000061  46.56000137
C    14.98999977  16.28000069  47.80000305
C    13.63000011  16.18000031  47.84999847
C    23.36000061  14.57999992  47.19999695
H    23.58713722  14.89505959  48.21844864
H    18.65999985  14.82999992  49.33000183
H    18.05999947  16.79999924  44.82999802
H    20.42000008  16.76000023  44.51000214
H    22.49000168  15.82999992  44.93000031
H    21.02999878  14.22999954  48.68000031
H    13.12000084  16.02000046  48.80000305
H    23.95000076  15.06999969  46.40999603
H    23.54999924  13.50000000  47.18999863
S    16.31000137  12.92000008  52.04999924
C    18.95000076  12.48999977  51.19999695
C    17.59000015  12.61000061  50.90999985
C    17.06999969  12.28999996  49.59000015
C    17.80999947  11.82000065  48.60000229
C    19.20999908  11.69000053  48.80000305
C    20.07999802  11.05000019  47.95000076
C    21.40999985  10.82999992  48.27000046
C    21.97999954  11.39000034  49.43000031
C    21.17000198  11.96000004  50.38999939
C    19.78000069  12.05999947  50.13000107
C    15.62999916  12.57999992  49.54999924
C    15.08999920  12.97000027  50.80999756
C    13.73000050  13.48999977  50.97999954
C    23.47999954  11.30000019  49.72000122
H    23.73682785  11.52906227  50.75424957
H    19.37999916  12.61999989  52.18000031
H    17.36999893  11.50000000  47.65999603
H    19.60000038  10.80999947  47.01000214
H    21.98999786  10.21000004  47.60000229
H    21.47000122  12.36999989  51.35000229
H    13.42000008  13.94000053  51.91999817
H    23.85999870  10.32999992  49.40000153
H    23.97000122  12.09000015  49.13000107
S    12.13999939  12.53999901  47.38999939
C     9.56999969  13.20000076  48.13000107
C    10.88999939  13.17999935  48.41999817
C    11.44000053  13.47000027  49.72999954
C    10.50000000  13.63999939  50.72000122
C     9.15000057  13.78000069  50.40000153
C     8.15999985  14.00000000  51.43000031
C     6.84000015  14.06999969  51.18000031
C     6.42000008  13.90999985  49.86999893
C     7.27999973  13.48999977  48.85000229
C     8.67999935  13.43000031  49.08000183
C    12.89000034  13.35000038  49.81999969
C    13.38000107  12.79999924  48.63999939
C    14.65000057  12.36999989  48.53000259
C     4.92000008  14.15999985  49.59999847
H     4.67197227  13.80254841  48.60059357
H     9.31999969  12.92000008  47.11000061
H    10.82999992  13.45999908  51.73999786
H     8.52999973  14.35999966  52.38999939
H     6.17000008  14.37000084  51.98999786
H     6.80999994  13.22999954  47.90999985
H    14.89999962  11.69000053  47.71999741
H     4.65999985  15.21999931  49.65999985
H     4.35999966  13.68999958  50.41999817
