96

S    12.39999962  16.87999916  44.36000061
C     9.77999973  17.35999870  45.07999802
C    10.95000076  16.72000122  45.34000015
C    11.19999981  16.20000076  46.65000153
C    10.14999962  16.18999863  47.57999802
C     8.88000011  16.65999985  47.28000259
C     7.86999989  16.62999916  48.22000122
C     6.63000011  17.20000076  48.01000214
C     6.48999977  17.85000038  46.77000046
C     7.48000050  18.01000023  45.86999893
C     8.69000053  17.29999924  46.04999924
C    12.69999981  16.27000046  46.88999939
C    13.43000031  16.55999947  45.70000076
C    14.85000038  16.54000092  45.61000061
C     5.19999981  18.38999939  46.25000000
H     4.75517321  17.57209206  45.68320465
H     9.81999969  18.02999878  44.22000122
H    10.21000004  15.62999916  48.52000427
H     7.94000053  16.03999901  49.13000107
H     5.84000015  16.97999954  48.72000122
H     7.36000013  18.54999924  44.93000031
H    15.29000092  16.70999908  44.62999725
H     4.53000021  18.68000031  47.05999756
H     5.31000042  19.29999924  45.65000153
S    15.81999969  15.59000015  49.25000000
C    18.48999977  15.06000042  48.61000061
C    17.26000023  15.52000046  48.23999786
C    16.98999977  15.95999908  46.90000153
C    17.97999954  16.10999870  45.97999954
C    19.27999878  15.85999966  46.38999939
C    20.39999962  15.92000008  45.45999908
C    21.59000015  15.27999973  45.72000122
C    21.87999916  14.73999977  46.97999954
C    20.82999992  14.63000107  47.94000244
C    19.52999878  15.22999954  47.69000244
C    15.57000065  16.23999977  46.72999954
C    14.84000015  16.02000046  47.90000153
C    13.43000031  15.95999908  47.97999954
C    23.18000031  14.28999996  47.39999771
H    23.46384430  14.85768890  48.28614807
H    18.68000031  14.63000107  49.59000015
H    17.77000046  16.18000031  44.91000366
H    20.26000023  16.18999863  44.41999817
H    22.42000198  15.34000015  45.02999878
H    20.98999977  14.22999954  48.94000244
H    12.94000053  15.67000008  48.90999603
H    23.97999954  14.52999973  46.69000244
H    23.09000015  13.22999954  47.65999603
S    11.73999977  16.76000023  51.00000000
C     9.17000008  17.35999870  51.70999908
C    10.38000011  16.75000000  52.00000000
C    10.65999985  16.23999977  53.33000183
C     9.68999958  16.20000076  54.29999924
C     8.48999977  16.79000092  54.12000275
C     7.34000015  16.67000008  55.00000000
C     6.10000038  17.09000015  54.61000061
C     5.86000013  17.71999931  53.39000320
C     6.97000027  17.92000008  52.55000305
C     8.23000050  17.38999939  52.80000305
C    12.10999966  16.00000000  53.52000427
C    12.81999969  16.31999969  52.34000397
C    14.19999981  16.57999992  52.34000397
C     4.48999977  18.23999977  53.06999969
H     4.09108210  17.76409912  52.17418671
H     8.97999954  17.88999939  50.77000046
H     9.80000019  15.53999996  55.14999771
H     7.67000008  16.28999901  55.96000290
H     5.40000010  17.11000061  55.44000244
H     6.90000010  18.57999992  51.68000031
H    14.72000027  17.02999878  51.50000000
H     3.82999992  18.02000046  53.92000198
H     4.57999992  19.31999969  52.90999985
S    15.42000008  15.52000046  55.90999985
C    18.02999878  15.19000053  55.02999878
C    16.76000023  15.73999977  54.84000397
C    16.36000061  16.21999931  53.55999756
C    17.27000046  16.29999924  52.54000092
C    18.60999870  15.95999908  52.74000168
C    19.62000084  16.40999985  51.81000137
C    20.94000053  16.07999992  52.08000183
C    21.31000137  15.44000053  53.29999924
C    20.36000061  15.07999992  54.22000122
C    18.98999977  15.34000015  53.99000168
C    14.92000008  16.34000015  53.47999954
C    14.23999977  15.93999958  54.68999863
C    12.84999943  15.77000046  54.71000290
C    22.75000000  15.21999931  53.64999771
H    22.86639786  15.34367371  54.72668457
H    18.26000023  14.63000107  55.93000031
H    16.97999954  16.76000023  51.59999847
H    19.34000015  17.02000046  50.96000290
H    21.61000061  16.25000000  51.23000336
H    20.58000183  14.67000008  55.20000076
H    12.32999992  15.54999924  55.63000107
H    23.35000038  15.90000057  53.02000046
H    23.11000061  14.19999981  53.46000290
