96

S    12.30000019  17.20999908  44.05000305
C     9.70000076  17.73999977  44.93000031
C    10.97000027  17.21999931  45.18000031
C    11.33999920  16.87000084  46.49000168
C    10.48999977  16.86000061  47.64999771
C     9.15000057  17.28999901  47.41000366
C     8.21000004  17.36999893  48.43999863
C     6.94999981  17.70000076  48.11999893
C     6.46000004  17.88999939  46.77999878
C     7.42000008  18.06999969  45.83000183
C     8.78000069  17.71999931  46.07999802
C    12.77999973  16.72000122  46.58000183
C    13.45999908  16.77000046  45.34000015
C    14.80000019  16.87000084  45.17000198
C     4.94999981  18.32999992  46.52999878
H     4.51580286  17.69271088  45.75965118
H     9.31999969  18.05999947  43.96999741
H    10.86999989  16.55999947  48.61999893
H     8.67999935  17.18000031  49.40000153
H     6.34000015  17.81999969  49.01000214
H     7.09000015  18.31999969  44.81999969
H    15.11000061  17.09000015  44.15000153
H     4.44000006  18.20000076  47.49000168
H     4.86000013  19.38999939  46.25999832
S    15.97000027  15.90000057  48.93000031
C    18.53999901  15.39000034  48.08000183
C    17.38000107  15.92000008  47.80000305
C    16.97999954  16.44000053  46.49000168
C    17.97000122  16.51000023  45.47999954
C    19.27999878  16.03999901  45.80999756
C    20.29000092  15.98000050  44.79999924
C    21.59000015  15.46000004  45.10000229
C    21.90999985  15.00000000  46.44000244
C    20.93000031  14.93000031  47.35000229
C    19.63000107  15.44000053  47.08000183
C    15.52999973  16.60000038  46.35000229
C    14.88999939  16.36999893  47.61000061
C    13.50000000  16.46999931  47.75000000
C    23.34000015  14.63999939  46.84000015
H    23.66326904  15.13895798  47.75358582
H    18.78000069  15.06000042  49.09000015
H    17.71999931  16.95999908  44.52000046
H    20.05000114  16.42000008  43.83999634
H    22.32000160  15.44000053  44.29999924
H    21.02000046  14.63999939  48.39000320
H    13.10999966  16.36000061  48.75000000
H    23.95000076  14.96000099  45.97999954
H    23.35000038  13.55000019  46.95000076
S    15.90000057  13.15999985  52.04999924
C    18.51000023  12.63000011  51.29000092
C    17.15999985  12.67000008  50.97999954
C    16.62999916  12.23999977  49.66999817
C    17.59000015  11.82000065  48.74000168
C    18.96000099  11.94000053  49.05000305
C    19.85000038  11.36999989  48.08000183
C    21.12999916  11.21999931  48.43000031
C    21.68999863  11.78999996  49.62999725
C    20.81999969  12.28000069  50.58000183
C    19.47000122  12.20999908  50.34999847
C    15.22999954  12.48999977  49.52000046
C    14.73999977  13.12999916  50.68000031
C    13.43000031  13.57999992  50.84999847
C    23.18000031  11.54999924  49.89999771
H    23.47989845  11.97424793  50.85821152
H    18.89000130  12.96000004  52.25000000
H    17.27000046  11.42000008  47.77999878
H    19.32999992  11.03000069  47.18999863
H    21.77000046  10.72000027  47.70000076
H    21.09000015  12.56000042  51.59999847
H    13.02999973  13.92000008  51.79999924
H    23.42000008  10.47999954  49.86999893
H    23.78999901  11.98999977  49.09000015
S    11.84000015  12.38000011  47.44999695
C     9.22999954  13.22999954  48.29000092
C    10.52999973  13.12999916  48.54999924
C    11.10000038  13.66000080  49.75999832
C    10.32999992  14.11999893  50.81999969
C     8.96000004  14.29999924  50.54000092
C     8.10999966  14.77000046  51.55000305
C     6.71000004  14.78000069  51.38000107
C     6.15000010  14.40999985  50.06999969
C     6.94000006  13.94999981  49.08000183
C     8.36000061  13.85000038  49.26000214
C    12.53999901  13.40999985  49.79000092
C    13.03999996  12.71999931  48.61000061
C    14.40999985  12.34000015  48.46000290
C     4.67000008  14.56999969  49.68000031
H     4.46077919  14.16550732  48.68968964
H     8.84000015  12.71000004  47.41000366
H    10.67999935  14.32000065  51.83000183
H     8.56000042  14.96999931  52.50999832
H     6.05999994  15.27999973  52.09000015
H     6.50000000  13.71999931  48.11999893
H    14.80000019  11.92999935  47.52999878
H     4.39000034  15.62999916  49.75999832
H     4.15999985  14.14000034  50.54999924
