96

S    12.15000057  17.53999901  44.10999680
C     9.48000050  17.69000053  45.00000000
C    10.71000004  17.30999947  45.20000076
C    11.13999939  16.63999939  46.42000198
C    10.14999962  16.42000008  47.37999725
C     8.84000015  16.87999916  47.19999695
C     7.79999971  16.64999962  48.15000153
C     6.46000004  16.95999908  47.81999969
C     6.17999983  17.68000031  46.63000107
C     7.23000002  17.92000008  45.72999954
C     8.52999973  17.45000076  45.97000122
C    12.61000061  16.39000130  46.49000168
C    13.21000004  16.80999947  45.31000137
C    14.61999989  16.86000061  45.27000046
C     4.71000004  18.22000122  46.37000275
H     4.27413082  17.62500381  45.56744766
H     9.25000000  18.35000038  44.15999985
H    10.36999893  15.88000107  48.29999924
H     8.13000011  16.10999870  49.02999878
H     5.59999990  16.65999985  48.40999985
H     6.98000002  18.30999947  44.73999786
H    15.03000069  17.19000053  44.31999969
H     4.00999975  18.19000053  47.22000122
H     4.67999983  19.29000092  46.11000061
S    15.92000008  15.65999985  48.89999771
C    18.53000069  15.38000011  48.09999847
C    17.27000046  15.88999939  47.78999710
C    16.82999992  16.32999992  46.50000000
C    17.79000092  16.46000099  45.48999786
C    19.13999939  15.95999908  45.77000046
C    20.23999977  16.18999863  44.85000229
C    21.53000069  15.81999969  45.17000198
C    21.77000046  15.18000031  46.45999908
C    20.78000069  14.85999966  47.36999893
C    19.47999954  15.40999985  47.09000015
C    15.38000011  16.50000000  46.43000031
C    14.73000050  16.06999969  47.58999634
C    13.35999966  16.04999924  47.65999603
C    23.15999985  14.85999966  46.86000061
H    23.44838715  15.17722607  47.86214828
H    18.81000137  14.88000011  49.02000046
H    17.47999954  16.87999916  44.52999878
H    20.06000137  16.84999847  44.01000214
H    22.40999985  16.27000046  44.72999954
H    21.02999878  14.34999943  48.29000092
H    12.79999924  15.85000038  48.56999969
H    23.78000069  15.34999943  46.10000229
H    23.39999962  13.78999901  46.84000015
S    16.10999870  12.94999981  52.08000183
C    18.67000008  12.48000050  51.44000244
C    17.36999893  12.42000008  51.06999969
C    16.97000122  12.15000057  49.69999695
C    17.92000008  11.87999916  48.81000137
C    19.25000000  11.84999943  49.10999680
C    20.22999954  11.51000023  48.13999939
C    21.57999992  11.42000008  48.47999954
C    21.94999886  11.59999943  49.81999969
C    21.00000000  12.01000023  50.79999924
C    19.63000107  12.13999939  50.43000031
C    15.51000023  12.32999992  49.56999969
C    14.93999958  12.88000011  50.75000000
C    13.60999966  13.27999973  50.83000183
C    23.40999985  11.50000000  50.20999908
H    23.58739662  11.86218643  51.22264481
H    19.03000069  12.86000061  52.38999939
H    17.63000107  11.64999962  47.78999710
H    19.92000008  11.10999966  47.18000031
H    22.32000160  11.21999931  47.70999908
H    21.19999886  12.35000038  51.81000137
H    13.12000084  13.48000050  51.77999878
H    23.72999954  10.46000004  50.05000305
H    24.02000046  12.06999969  49.50000000
S    12.17000008  12.25000000  47.25999832
C     9.52999973  12.74000072  48.18000031
C    10.88999939  12.75000000  48.40999985
C    11.40999985  13.12000084  49.68000031
C    10.57000065  13.48000050  50.70000076
C     9.18000031  13.59000015  50.47999954
C     8.25000000  14.09000015  51.44000244
C     6.90000010  14.15999985  51.14999771
C     6.34000015  13.75000000  49.85000229
C     7.25000000  13.28999996  48.90999603
C     8.67000008  13.23999977  49.19000244
C    12.82999992  13.07999992  49.69999695
C    13.40000057  12.53999901  48.50999832
C    14.77000046  12.27000046  48.41999817
C     4.94000006  14.00000000  49.45999908
H     4.76285839  13.79333496  48.40453339
H     9.26000023  12.20999908  47.27000427
H    11.06999969  13.83999920  51.59999847
H     8.69999981  14.32999992  52.39999771
H     6.21000004  14.65999985  51.83000183
H     6.91999960  12.86000061  47.97000122
H    15.19999981  11.92999935  47.48000336
H     4.63000011  15.01999950  49.73999786
H     4.26000023  13.27999973  49.94999695
