96

S    12.22000027  17.20000076  44.27000046
C     9.46000004  17.43000031  44.78000259
C    10.69000053  17.05000114  45.26000214
C    10.95999908  16.77999878  46.63999939
C     9.94999981  16.65999985  47.52999878
C     8.65999985  17.05000114  47.11999893
C     7.63000011  17.06999969  48.08000183
C     6.28999996  17.35999870  47.67000198
C     6.09000015  17.92000008  46.40999603
C     7.11999989  18.04000092  45.54000092
C     8.38000011  17.45000076  45.77000046
C    12.39999962  16.54000092  46.83000183
C    13.17000008  16.98999977  45.70000076
C    14.55000019  16.97999954  45.59999847
C     4.67999983  18.38999939  45.91999817
H     4.31391954  17.86600113  45.03709793
H     9.42000008  17.79000092  43.75999832
H    10.25000000  16.46000099  48.55999756
H     7.86999989  16.77999878  49.09999847
H     5.42999983  16.97999954  48.20999908
H     7.03000021  18.60999870  44.61000061
H    15.10000038  16.97999954  44.65999985
H     4.00999975  18.26000023  46.77999878
H     4.80999994  19.45000076  45.65999985
S    15.47000027  15.44000053  49.25000000
C    18.15999985  15.11999989  48.47000122
C    16.93000031  15.70000076  48.22999954
C    16.60000038  16.18000031  46.95999908
C    17.50000000  16.04999924  45.89000320
C    18.85000038  15.52000046  46.09000397
C    19.88999939  15.54999924  45.12000275
C    21.15999985  14.98999977  45.43000031
C    21.44000053  14.59000015  46.76000214
C    20.43000031  14.56999969  47.71999741
C    19.12999916  15.05000019  47.41000366
C    15.21000004  16.53000069  46.77999878
C    14.48999977  16.13999939  47.91999817
C    13.07999992  16.15999985  47.97000122
C    22.89999962  14.29999924  47.18999863
H    23.11652374  14.77495289  48.14688873
H    18.38000107  14.70000076  49.45000076
H    17.23999977  16.31999969  44.86999893
H    19.73999977  16.03000069  44.15999985
H    21.91999817  15.07999992  44.65999985
H    20.62999916  14.32000065  48.75999832
H    12.48999977  16.06999969  48.88999939
H    23.61000061  14.63000107  46.42000198
H    22.92000008  13.21000004  47.32999802
S    16.21000099  12.74000072  52.30999756
C    18.85000038  12.39999962  51.36000061
C    17.46000099  12.38999939  51.13999939
C    16.95999908  11.90999985  49.91000366
C    17.85000038  11.57999992  48.88999939
C    19.26000023  11.68000031  49.06000137
C    20.17999840  11.11999989  48.11000061
C    21.47000122  10.77999973  48.50999832
C    21.93000031  11.11999989  49.82999802
C    21.07000160  11.82999992  50.66999817
C    19.73999977  12.02000046  50.31999969
C    15.48999977  12.15000057  49.86999893
C    14.92000008  12.51000023  51.06999969
C    13.59000015  12.96000004  51.14999771
C    23.31999969  10.76000023  50.37000275
H    23.65711975  11.18506241  51.31539917
H    19.29999924  12.46000099  52.35000229
H    17.42000008  11.13999939  48.00000000
H    19.82999992  10.67000008  47.18999863
H    22.13000107  10.14999962  47.91999817
H    21.44000053  12.18000031  51.62000275
H    13.19000053  13.38000107  52.08000183
H    23.22999954   9.67000008  50.38999939
H    24.01000023  11.09000015  49.58000183
S    12.22000027  12.56000042  47.43999863
C     9.61999989  13.12000084  48.37999725
C    10.95999908  13.12999916  48.55999756
C    11.49000072  13.31999969  49.86000061
C    10.59999943  13.67000008  50.86999893
C     9.22000027  13.64999962  50.65999985
C     8.27000046  13.89000034  51.72000122
C     6.94999981  14.04000092  51.45000076
C     6.38999987  13.86999989  50.13999939
C     7.26000023  13.48999977  49.15999985
C     8.67999935  13.36999989  49.40999985
C    12.84999943  12.88000011  50.00999832
C    13.38999939  12.48999977  48.80000305
C    14.72000027  12.05000019  48.72000122
C     5.03000021  14.40999985  49.72000122
H     4.66289473  14.07226276  48.75084305
H     9.26000023  12.98999977  47.36000061
H    10.80000019  13.78999901  51.93000031
H     8.67999935  14.28999996  52.64999771
H     6.32999992  14.52000046  52.18999863
H     6.89000034  13.40999985  48.13999939
H    15.21000004  11.78999996  47.77999878
H     5.03999996  15.50000000  49.86000061
H     4.33999968  13.96999931  50.45000076
