96

S    12.36999989  17.28999901  44.20999908
C     9.59999943  17.50000000  44.89999771
C    10.88000107  17.13000107  45.22999573
C    11.13999939  16.61000061  46.56000137
C    10.07999992  16.39999962  47.49000168
C     8.78000069  16.88999939  47.15000153
C     7.69999981  16.72000122  48.04000092
C     6.46000004  17.18000031  47.67000198
C     6.24000025  17.81999969  46.45999908
C     7.26000023  17.84000015  45.52999878
C     8.55000019  17.42000008  45.83000183
C    12.56000042  16.39000130  46.75000000
C    13.36999989  16.90000153  45.66999817
C    14.77000046  16.81999969  45.65000153
C     4.94999981  18.32999992  46.07999802
H     4.58603954  17.72568893  45.24906921
H     9.48000050  17.89999962  43.89999771
H    10.29000092  15.93000031  48.43999863
H     7.95000029  16.31999969  49.02000046
H     5.69000006  17.18000031  48.43000031
H     7.11000013  18.18000031  44.51000214
H    15.36999893  17.30999947  44.88999939
H     4.30000019  18.32999992  46.97000122
H     5.05999994  19.38999939  45.81999969
S    15.65999985  15.29000092  49.16999817
C    18.38999939  14.88999939  48.50000000
C    17.11000061  15.36999893  48.22000122
C    16.84000015  15.98999977  46.95999908
C    17.85000038  16.15999985  46.09000397
C    19.18000031  15.73999977  46.37000275
C    20.23999977  15.84000015  45.38999939
C    21.45999908  15.39999962  45.70999908
C    21.77999878  14.73999977  46.97000122
C    20.72999954  14.53999996  47.87000275
C    19.45999908  15.13000011  47.58999634
C    15.42000008  16.21000099  46.72999954
C    14.65999985  15.80000019  47.83000183
C    13.25000000  15.80999947  47.81999969
C    23.21000099  14.27000046  47.28000259
H    23.49621773  14.79950333  48.18873978
H    18.57999992  14.23999977  49.34999847
H    17.70000076  16.54999924  45.07999802
H    20.03999901  16.28000069  44.41999817
H    22.26000023  15.52000046  44.98000336
H    20.85000038  13.93000031  48.75000000
H    12.61999989  15.59999943  48.68000031
H    23.85999870  14.55000019  46.44000244
H    23.22999954  13.17999935  47.36999893
S    11.87999916  17.02000046  50.89000320
C     9.26000023  17.43000031  51.52000046
C    10.53999996  16.95999908  51.91999817
C    10.80000019  16.48999977  53.27999878
C     9.81999969  16.42000008  54.22000122
C     8.55000019  16.97000122  53.87000275
C     7.46000004  16.82999992  54.73999786
C     6.17000008  17.20999908  54.40000153
C     5.96000004  17.97000122  53.20999908
C     7.00000000  18.07999992  52.29999924
C     8.30000019  17.48999977  52.54000092
C    12.23000050  16.29999924  53.46000290
C    12.94999981  16.52000046  52.25000000
C    14.29999924  16.21000099  52.18000031
C     4.63000011  18.57999992  52.90000153
H     4.24762535  18.16286278  51.96839905
H     9.17000008  18.01000023  50.59999847
H    10.03000069  15.90000057  55.14999771
H     7.59999990  16.14999962  55.58000183
H     5.38000011  17.14999962  55.13999939
H     6.74000025  18.46999931  51.31999969
H    14.92000008  16.34000015  51.30000305
H     3.96000004  18.30999947  53.72000122
H     4.63999987  19.67000008  52.75000000
S    15.36999893  15.44000053  55.86000061
C    18.04999924  14.96999931  55.07999802
C    16.80999947  15.31000042  54.75000000
C    16.43000031  15.80000019  53.43000031
C    17.38999939  15.90000057  52.43000031
C    18.72999954  15.54999924  52.72999573
C    19.79999924  15.54999924  51.77000046
C    21.07000160  15.01999950  52.08000183
C    21.35999870  14.63000107  53.40999985
C    20.38000107  14.77000046  54.38999939
C    19.04000092  15.03000069  54.06999969
C    15.00000000  15.97000027  53.30999756
C    14.29999924  15.77000046  54.54999924
C    12.90999985  15.81999969  54.61999893
C    22.79000092  14.32000065  53.85000229
H    23.11047173  14.86124229  54.74020386
H    18.26000023  14.67000008  56.11000061
H    17.20999908  16.21999931  51.40999603
H    19.65999985  15.95999908  50.77000046
H    21.84999847  15.06999969  51.32999802
H    20.65000153  14.55000019  55.41999817
H    12.35000038  15.24000072  55.34999847
H    23.52999878  14.46000004  53.06000137
H    22.75000000  13.25000000  54.10999680
