96

S    12.05999947  16.72999954  44.20000076
C     9.48999977  17.27000046  45.08999634
C    10.73999977  16.73999977  45.35999680
C    11.10999966  16.38000107  46.69000244
C    10.06999969  16.27000046  47.65999603
C     8.73000050  16.61999893  47.30999756
C     7.71000004  16.45000076  48.29000092
C     6.38000011  16.88999939  47.95000076
C     6.17000008  17.69000053  46.79000092
C     7.17000008  17.76000023  45.86999893
C     8.43000031  17.14999962  46.03000259
C    12.56000042  16.13999939  46.72000122
C    13.17999935  16.39999962  45.52999878
C    14.59000015  16.42000008  45.54000092
C     4.75000000  18.01000023  46.44000244
H     4.50325203  17.50924683  45.50380707
H     9.30000019  17.70000076  44.12000275
H    10.32999992  15.78999996  48.60000229
H     8.00000000  15.95999908  49.20999908
H     5.55999994  16.46000099  48.50999832
H     6.94000006  18.23999977  44.92000198
H    14.98999977  16.53000069  44.54000092
H     4.19000006  17.60000038  47.29999924
H     4.65000010  19.10000038  46.45999908
S    15.69000053  15.39000034  49.22999954
C    18.38000107  15.15999985  48.66000366
C    17.10000038  15.48999977  48.23999786
C    16.79999924  15.86999989  46.90000153
C    17.82999992  16.00000000  45.89000320
C    19.13999939  15.52000046  46.26999664
C    20.23999977  15.53999996  45.34000015
C    21.56999969  15.25000000  45.72999954
C    21.76000214  14.75999928  47.02000046
C    20.75000000  14.78999996  47.97000122
C    19.38999939  15.14000034  47.64999771
C    15.34000015  16.05999947  46.72000122
C    14.60999966  15.73999977  47.85999680
C    13.25000000  15.76000023  47.81999969
C    23.02000046  14.22999954  47.50999832
H    23.59565544  15.02872181  47.97771835
H    18.61999893  14.93000031  49.68999863
H    17.59000015  16.21000099  44.85000229
H    20.06999969  15.62000084  44.27000046
H    22.30999947  15.14999962  44.93999863
H    20.97999954  14.44000053  48.96999741
H    12.58999920  15.69000053  48.68999863
H    23.55999947  14.00000000  46.58000183
H    22.82999992  13.35999966  48.15000153
S    15.77000046  12.94999981  52.36000061
C    18.48999977  12.34000015  51.52000046
C    17.13000107  12.30999947  51.27999878
C    16.61999893  11.82999992  50.05000305
C    17.53999901  11.44000053  49.02999878
C    18.94000053  11.43000031  49.23999786
C    19.95000076  10.82999992  48.39000320
C    21.24000168  10.65000057  48.81999969
C    21.68000031  11.13000011  50.04000092
C    20.78000069  11.72000027  50.93999863
C    19.47000122  11.94000053  50.51000214
C    15.19000053  11.97999954  49.98000336
C    14.57999992  12.64999962  51.13999939
C    13.19000053  12.97999954  51.23000336
C    23.09999847  10.75000000  50.54000092
H    23.49976730  11.16379356  51.46577454
H    18.89000130  12.79000092  52.43000031
H    17.20999908  10.77999973  48.22999954
H    19.73999977  10.47000027  47.37999725
H    21.78999901   9.92000008  48.23999786
H    21.02000046  11.90000057  51.98999786
H    12.76000023  13.38000107  52.14000320
H    23.02000046   9.65999985  50.63000107
H    23.84000015  10.82999992  49.73999786
S    11.78999996  12.03999996  47.58999634
C     9.23999977  12.56999969  48.40000153
C    10.52999973  12.60000038  48.63999939
C    11.03999996  13.10999966  49.92000198
C    10.18000031  13.50000000  50.87999725
C     8.73999977  13.48000050  50.58000183
C     7.77999973  13.94999981  51.52000046
C     6.46000004  14.14000034  51.26999664
C     6.02999973  13.71000099  49.95999908
C     6.90999985  13.19000053  49.03999710
C     8.32999992  13.05999947  49.29999924
C    12.44999981  12.89000034  50.02999878
C    13.03999996  12.28000069  48.89999771
C    14.34999943  11.75000000  48.86000061
C     4.59000015  13.81000042  49.59000015
H     4.47181177  13.64314556  48.51935196
H     8.86999989  12.20999908  47.43999863
H    10.57999992  13.80000019  51.84000015
H     8.19000053  14.27999973  52.47000122
H     5.82999992  14.70000076  51.95999908
H     6.67999983  12.92000008  48.01000214
H    14.70000076  11.30000019  47.93000031
H     4.32000017  14.82999992  49.88999939
H     3.98999977  13.09999943  50.18000031
