96

S    12.20000076  17.06999969  44.02000046
C     9.55999947  17.43999863  44.82999802
C    10.85999966  17.05000114  45.15999603
C    11.17000008  16.69000053  46.51000214
C    10.19999981  16.47999954  47.42000198
C     8.85999966  16.95999908  47.05999756
C     7.75000000  17.01000023  47.95000076
C     6.51999998  17.35000038  47.67000198
C     6.15999985  17.90999985  46.38000107
C     7.14999962  17.88999939  45.41999817
C     8.50000000  17.46000099  45.73999786
C    12.61000061  16.54000092  46.63000107
C    13.32999992  16.79000092  45.37000275
C    14.75000000  16.76000023  45.28999710
C     4.74000025  18.20999908  46.02000427
H     4.39422369  17.69486237  45.12380600
H     9.48999977  17.67000008  43.76999664
H    10.40999985  16.02000046  48.37999725
H     7.85000038  16.70999908  48.99000168
H     5.75000000  17.13999939  48.39000320
H     7.00999975  18.12000084  44.36999893
H    15.31999969  16.60000038  44.38000107
H     4.13999987  17.94999886  46.90000153
H     4.63000011  19.29000092  45.84000015
S    15.72000027  15.75000000  49.10999680
C    18.45000076  15.36000061  48.40000153
C    17.17000008  15.76000023  48.04999924
C    16.87000084  16.26000023  46.73999786
C    17.94000053  16.22999954  45.80999756
C    19.22000122  15.73999977  46.12999725
C    20.25000000  15.55999947  45.15999603
C    21.40999985  14.96999931  45.50000000
C    21.70999908  14.67000008  46.84000015
C    20.69999886  14.67000008  47.75000000
C    19.42000008  15.26000023  47.43999863
C    15.46000004  16.52000046  46.52000046
C    14.68999958  16.34000015  47.70999908
C    13.32999992  16.34000015  47.81000137
C    23.19000053  14.29999924  47.18999863
H    23.37993240  14.71378040  48.18035889
H    18.60000038  14.80000019  49.31999969
H    17.69000053  16.36000061  44.77000427
H    20.02000046  15.84000015  44.13000107
H    22.22999954  14.81999969  44.80999756
H    20.76999855  14.22999954  48.74000168
H    12.86999893  16.36999893  48.79000092
H    23.81999969  14.73000050  46.39999771
H    23.38999939  13.22000027  47.18000031
S    12.01000023  17.13999939  51.18000031
C     9.42000008  17.57999992  52.04999924
C    10.64000034  17.05999947  52.30999756
C    10.97000027  16.55999947  53.60000229
C    10.03999901  16.53000069  54.61999893
C     8.73000050  17.01000023  54.38000107
C     7.63000011  16.95000076  55.26000214
C     6.34999990  17.27000046  54.87999725
C     6.06999969  17.67000008  53.50999832
C     7.13000011  17.82999992  52.67000198
C     8.40999985  17.40999985  53.01000214
C    12.35000038  16.13000107  53.62999725
C    13.05999947  16.38000107  52.43999863
C    14.39000034  16.28000069  52.34000397
C     4.69000006  18.15999985  53.20000076
H     4.27314186  17.64075661  52.33703232
H     9.26000023  18.15999985  51.13999939
H    10.25000000  16.13000107  55.61000061
H     7.86000013  16.64999962  56.27999878
H     5.66999960  17.35999870  55.72999954
H     7.00999975  18.35000038  51.72000122
H    15.00000000  16.54999924  51.49000168
H     4.09999990  18.00000000  54.10999680
H     4.74000025  19.25000000  53.04000092
S    15.73999977  15.60999966  56.00999832
C    18.38000107  15.40999985  55.17000198
C    17.02999878  15.62000084  54.86999893
C    16.54999924  15.92000008  53.59000397
C    17.52000046  16.03000069  52.56999969
C    18.89999962  15.90999985  52.84999847
C    19.85000038  15.90000057  51.81000137
C    21.14999962  15.47000027  52.04000092
C    21.61000061  15.31999969  53.40999985
C    20.69000053  15.44000053  54.47999954
C    19.32999992  15.69000053  54.19000244
C    15.14000034  15.98999977  53.47000122
C    14.51000023  15.88999939  54.77000427
C    13.12999916  15.93000031  54.80999756
C    23.05000114  14.88999939  53.68999863
H    23.28964043  15.15783405  54.71904373
H    18.71000099  14.96000099  56.10000229
H    17.31999969  16.17000008  51.51000214
H    19.48999977  16.04999924  50.79999924
H    21.80000114  15.21999931  51.19999695
H    21.05999947  15.03999901  55.41999817
H    12.55000019  15.93999958  55.72999954
H    23.65999985  15.51000023  53.02000046
H    23.21000099  13.81999969  53.53000259
