96

S    12.35999966  17.47999954  44.51000214
C     9.61999989  17.57999992  45.13000107
C    10.92000008  17.14999962  45.51000214
C    11.23000050  16.76000023  46.84000015
C    10.25000000  16.60000038  47.76000214
C     8.90999985  17.01000023  47.39999771
C     7.73000002  16.77000046  48.18999863
C     6.44000006  17.22999954  47.83000183
C     6.32000017  17.97000122  46.63999939
C     7.39000034  18.12000084  45.84999847
C     8.67000008  17.56000137  46.11000061
C    12.71000004  16.61999893  47.01000214
C    13.43999958  16.93000031  45.81999969
C    14.81999969  16.92000008  45.76000214
C     4.98000002  18.34000015  46.11999893
H     4.61760664  17.80365753  45.24301147
H     9.44000053  18.05999947  44.16999817
H    10.44999981  16.21000099  48.75000000
H     7.90999985  16.17000008  49.06999969
H     5.59000015  16.88999939  48.40999985
H     7.32999992  18.52000046  44.84000397
H    15.34999943  17.28999901  44.88999939
H     4.44000006  18.20999908  47.06999969
H     4.94999981  19.42000008  45.93000031
S    15.86999989  15.54999924  49.34999847
C    18.52000046  15.11999989  48.61999893
C    17.29999924  15.65000057  48.33000183
C    16.98999977  16.23999977  47.04000092
C    18.02999878  16.39000130  46.11999893
C    19.37000084  15.98000050  46.53999710
C    20.34000015  16.28000069  45.66999817
C    21.65999985  15.81999969  45.89000320
C    21.96000099  15.03000069  47.05999756
C    20.89999962  14.85999966  47.95000076
C    19.60000038  15.31999969  47.72999573
C    15.52999973  16.46000099  46.86999893
C    14.81999969  16.09000015  48.02999878
C    13.45000076  16.25000000  48.13999939
C    23.38000107  14.65999985  47.48000336
H    23.67084312  15.14716053  48.41069412
H    18.54999924  14.52999973  49.54000092
H    17.84000015  16.72999954  45.11000061
H    20.12000084  16.93000031  44.82999802
H    22.53000069  16.22999954  45.38000107
H    21.02000046  14.21000004  48.81999969
H    12.94999981  16.03000069  49.06999969
H    24.11999893  14.98000050  46.75000000
H    23.47999954  13.56999969  47.63000107
S    15.97000027  13.30999947  52.56000137
C    18.63999939  12.53999901  51.77999878
C    17.27000046  12.64999962  51.50000000
C    16.72000122  12.25999928  50.22999573
C    17.56000137  11.82000065  49.31999969
C    18.97999954  11.77999973  49.55999756
C    19.85000038  11.32999992  48.54000092
C    21.18999863  11.14999962  48.79000092
C    21.80999947  11.65999985  50.04000092
C    20.97999954  12.10999966  51.00999832
C    19.59000015  12.13999939  50.79999924
C    15.29000092  12.36999989  50.13999939
C    14.75000000  12.97999954  51.29000092
C    13.42000008  13.50999928  51.27999878
C    23.29000092  11.38000011  50.33000183
H    23.62854385  11.64651394  51.33123016
H    18.98999977  12.76000023  52.77999878
H    17.29999924  11.51000023  48.30999756
H    19.48999977  11.02000046  47.56000137
H    21.78999901  10.71000004  48.00000000
H    21.31000137  12.22000027  52.02999878
H    13.02000046  14.09999943  52.09999847
H    23.36999893  10.29000092  50.15999603
H    23.95999908  11.78999996  49.56999969
S    12.03999996  12.58999920  47.60000229
C     9.42000008  12.98999977  48.43000031
C    10.73999977  13.03999996  48.74000168
C    11.19999981  13.59000015  49.98000336
C    10.19999981  14.01999950  50.91999817
C     8.89999962  14.01999950  50.56000137
C     7.82999992  14.40999985  51.44000244
C     6.50000000  14.27000046  51.05999756
C     6.15999985  13.69999981  49.79999924
C     7.16000032  13.53999996  48.87000275
C     8.48999977  13.55999947  49.26000214
C    12.61000061  13.26000023  50.13999939
C    13.22999954  12.79999924  48.97999573
C    14.52999973  12.32999992  48.97999573
C     4.73000002  13.30999947  49.45999908
H     4.48435402  13.43282318  48.40516663
H     9.04999924  12.56000042  47.50000000
H    10.52000046  14.23999977  51.93999863
H     8.02999973  14.70000076  52.45999908
H     5.64000034  14.50000000  51.66999817
H     7.02000046  13.22999954  47.84000015
H    15.06999969  12.02999973  48.09000015
H     4.07000017  14.01000023  49.99000168
H     4.51999998  12.35999966  49.98000336
