96

S    12.65999985  17.35000038  44.51000214
C     9.94000053  17.38999939  44.98000336
C    11.18000031  17.06999969  45.41999817
C    11.40999985  16.56999969  46.76000214
C    10.34000015  16.32999992  47.61000061
C     9.06000042  16.70999908  47.25000000
C     8.01000023  16.86000061  48.20000076
C     6.77999973  17.52000046  47.90999985
C     6.52999973  17.94000053  46.58000183
C     7.53999996  17.86000061  45.68000031
C     8.82999992  17.28000069  45.93999863
C    12.84999943  16.40999985  47.02000046
C    13.61999989  16.84999847  45.86000061
C    15.01000023  16.80999947  45.81999969
C     5.10999966  18.29000092  46.09000397
H     4.80937004  17.73273468  45.20277405
H     9.84000015  17.98999977  44.06999969
H    10.67000008  16.09000015  48.61999893
H     8.19999981  16.59000015  49.23999786
H     6.01000023  17.79000092  48.62999725
H     7.40999985  18.27999878  44.68000031
H    15.55999947  17.09000015  44.93000031
H     4.44999981  18.09000015  46.95000076
H     4.92000008  19.36000061  45.93999863
S    15.93999958  15.52000046  49.47000122
C    18.61999893  15.19000053  48.73000336
C    17.35000038  15.59000015  48.40000153
C    17.07999992  16.10000038  47.11000061
C    18.06999969  16.17000008  46.18000031
C    19.34000015  15.65999985  46.35000229
C    20.43000031  15.55999947  45.45000076
C    21.57999992  14.93000031  45.83000183
C    21.78999901  14.48999977  47.15000153
C    20.84000015  14.68000031  48.04000092
C    19.60000038  15.21999931  47.70000076
C    15.67000008  16.38000107  46.97000122
C    14.91000080  16.03999901  48.15999985
C    13.53000069  16.04999924  48.15000153
C    23.15999985  14.01999950  47.48000336
H    23.55031586  14.54042149  48.35459900
H    18.94000053  14.82999992  49.69999695
H    17.86000061  16.61000061  45.20999908
H    20.22999954  15.98000050  44.47000122
H    22.39999962  14.93999958  45.12000275
H    20.88999939  14.22000027  49.02999878
H    12.88000011  15.64000034  48.92000198
H    23.85999870  14.17000008  46.63999939
H    23.15000153  12.94999981  47.70000076
S    12.17000008  17.53000069  50.79999924
C     9.35999966  17.76000023  51.20999908
C    10.59999943  17.32999992  51.63000107
C    10.80999947  16.75000000  52.94000244
C     9.72999954  16.62999916  53.75000000
C     8.43999958  17.15999985  53.43000031
C     7.32999992  17.09000015  54.31999969
C     6.05000019  17.35999870  53.83999634
C     5.84999990  17.97000122  52.60000229
C     6.90999985  18.11000061  51.72999954
C     8.23999977  17.71000099  52.11000061
C    12.25000000  16.56999969  53.22000122
C    13.12000084  17.04000092  52.18000031
C    14.46000004  17.04000092  52.27000427
C     4.44999981  18.29000092  52.09999847
H     3.91781735  17.47298813  51.61278915
H     9.35999966  18.13999939  50.19000244
H     9.94000053  16.25000000  54.73999786
H     7.50000000  16.61999893  55.27999878
H     5.23000002  17.15999985  54.52000046
H     6.67999983  18.44000053  50.72000122
H    15.17000008  17.12000084  51.44000244
H     3.84000015  18.75000000  52.88999939
H     4.51999998  19.18000031  51.45999908
S    15.19999981  15.55999947  55.81999969
C    17.92000008  15.01999950  55.15999603
C    16.72999954  15.54999924  54.86000061
C    16.46999931  16.22999954  53.66000366
C    17.45000076  16.35000038  52.74000168
C    18.78999901  15.85000038  53.00000000
C    19.89999962  15.88000107  52.09000015
C    21.09999847  15.31000042  52.43000031
C    21.37000084  14.78999996  53.68999863
C    20.39999962  14.70000076  54.64000320
C    19.04999924  15.17000008  54.27999878
C    15.05000019  16.56999969  53.47000122
C    14.23999977  16.25000000  54.52000046
C    12.81999969  16.15999985  54.36000061
C    22.75000000  14.42999935  54.03999710
H    23.11349106  14.90322304  54.95215607
H    18.15999985  14.52000046  56.09000397
H    17.28999901  16.97999954  51.88000107
H    19.64999962  16.40999985  51.17000198
H    21.96000099  15.44999981  51.77000046
H    20.52000046  14.19000053  55.59999847
H    12.30000019  15.67999935  55.18000031
H    23.31000137  14.68000031  53.13999939
H    22.88000107  13.34000015  54.02999878
