96

S    12.01000023  16.87999916  44.31000137
C     9.35000038  17.27000046  45.19000244
C    10.67999935  16.90999985  45.40999985
C    11.10999966  16.57999992  46.73999786
C    10.13000011  16.59000015  47.77000046
C     8.82999992  16.90999985  47.51999664
C     7.82999992  16.79999924  48.54999924
C     6.51000023  16.97000122  48.20999908
C     6.17999983  17.42000008  46.90999985
C     7.11000013  17.61999893  45.97000122
C     8.46000004  17.29999924  46.25999832
C    12.55000019  16.40999985  46.81000137
C    13.17000008  16.68000031  45.59000015
C    14.55999947  16.70999908  45.43000031
C     4.72000027  17.71000099  46.47999573
H     4.31312037  17.06335258  45.70256805
H     9.11999989  17.67000008  44.20999908
H    10.47000027  16.36000061  48.77999878
H     8.15999985  16.27000046  49.43999863
H     5.65000010  16.65999985  48.79000092
H     6.84999990  17.84000015  44.93000031
H    14.98000050  16.82999992  44.43999863
H     3.93000007  17.79999924  47.23999786
H     4.84000015  18.71999931  46.07999802
S    15.85999966  15.71000004  49.06000137
C    18.40999985  15.36999893  48.15000153
C    17.13000107  15.80999947  47.94000244
C    16.70999908  16.22999954  46.60999680
C    17.61000061  16.26000023  45.63000107
C    18.89999962  15.82999992  45.79000092
C    19.92000008  15.93000031  44.75999832
C    21.18000031  15.47000027  45.05000305
C    21.57999992  15.06000042  46.31999969
C    20.65000153  15.17000008  47.36000061
C    19.31999969  15.44999981  47.09999847
C    15.26999950  16.34000015  46.52000046
C    14.67000008  15.98000050  47.75000000
C    13.30000019  16.04999924  47.93000031
C    22.98999977  14.70000076  46.65999985
H    23.24210739  14.95210838  47.69004059
H    18.71000099  14.89999962  49.08000183
H    17.40999985  16.59000015  44.61999893
H    19.70999908  16.31000137  43.76999664
H    21.93000031  15.44999981  44.27000046
H    20.96999931  14.88999939  48.36000061
H    12.81000042  15.75000000  48.83999634
H    23.68000031  15.15999985  45.93000031
H    23.23999786  13.63999939  46.52000046
S    15.92000008  12.79000092  51.97000122
C    18.44000053  12.10999966  51.31000137
C    17.14999962  12.13999939  50.93000031
C    16.69999886  11.77999973  49.64000320
C    17.65999985  11.46000004  48.69999695
C    19.04999924  11.46000004  49.08000183
C    19.98999977  10.93999958  48.16999817
C    21.34000015  10.93999958  48.54999924
C    21.80000114  11.51999950  49.77000427
C    20.85000038  11.94000053  50.63999939
C    19.45999908  11.84000015  50.35999680
C    15.26999950  12.02999973  49.51000214
C    14.75999928  12.68000031  50.65999985
C    13.47000027  13.07999992  50.77000046
C    23.26000023  11.26000023  50.19000244
H    23.41121292  11.23250675  51.26911163
H    18.68999863  12.43999958  52.31999969
H    17.36999893  10.97000027  47.77000046
H    19.70000076  10.39999962  47.28000259
H    22.04000092  10.34000015  47.97999954
H    21.12999916  12.28000069  51.63000107
H    13.12000084  13.40000057  51.75000000
H    23.31999969  10.24000072  49.79999924
H    23.97000122  11.92000008  49.68000031
S    11.95000076  12.34000015  47.19999695
C     9.30999947  12.60000038  48.04999924
C    10.65999985  12.65999985  48.29999924
C    11.14999962  13.00000000  49.59000015
C    10.21999931  13.50000000  50.48999786
C     8.82000065  13.56999969  50.24000168
C     7.96000004  14.26000023  51.13999939
C     6.65000010  14.21000004  50.91999817
C     6.12999964  13.63000011  49.77000427
C     6.94000006  13.02000046  48.81999969
C     8.34999943  13.01000023  49.02999878
C    12.61999989  12.82999992  49.66999817
C    13.17000008  12.41000080  48.43999863
C    14.42999935  11.92000008  48.37999725
C     4.72000027  13.76999950  49.40999985
H     4.41144276  13.23516655  48.51175308
H     8.90999985  12.30000019  47.09000015
H    10.55999947  13.86999989  51.45999908
H     8.31999969  14.77000046  52.02999878
H     6.06999969  14.93999958  51.49000168
H     6.51000023  12.50000000  47.97000122
H    14.81999969  11.56000042  47.43000031
H     4.46000004  14.81999969  49.20999908
H     4.05000019  13.53999996  50.25000000
