96

S    12.48000050  16.90999985  44.40000153
C     9.85999966  17.50000000  45.12000275
C    11.10999966  17.09000015  45.54999924
C    11.44999981  16.69999886  46.86999893
C    10.47000027  16.79999924  47.81999969
C     9.15999985  17.20000076  47.48000336
C     8.05999947  17.15999985  48.36999893
C     6.78999996  17.61999893  47.88000107
C     6.57999992  17.92000008  46.50000000
C     7.55999994  17.80999947  45.65999985
C     8.89000034  17.54999924  46.10000229
C    12.89999962  16.52000046  46.98999786
C    13.53999996  16.59000015  45.72999954
C    14.88999939  16.36999893  45.61000061
C     5.25000000  18.23999977  45.96000290
H     4.88435984  17.61109924  45.14828110
H     9.67000008  17.75000000  44.08000183
H    10.72999954  16.67000008  48.87000275
H     8.22000027  16.86000061  49.40000153
H     5.89999962  17.61999893  48.48999786
H     7.50999975  17.89999962  44.58000183
H    15.29000092  16.31999969  44.61000061
H     4.59999990  18.23999977  46.84000015
H     5.32000017  19.29999924  45.68000031
S    16.21999931  15.70000076  49.27000046
C    18.76000023  15.11999989  48.37999725
C    17.52000046  15.50000000  48.09999847
C    17.10000038  15.97000027  46.75000000
C    18.00000000  16.03000069  45.70999908
C    19.34999847  15.62000084  45.98999786
C    20.43999863  15.77999973  45.04000092
C    21.70000076  15.31000042  45.27000046
C    22.00000000  15.01999950  46.65999985
C    21.04000092  14.78000069  47.60000229
C    19.69000053  15.15999985  47.32999802
C    15.70000076  16.20000076  46.72000122
C    15.01000023  16.13000107  48.04999924
C    13.66000080  16.29999924  48.13999939
C    23.50000000  14.80000019  47.00000000
H    23.75188446  15.17083168  47.99354935
H    19.03000069  14.68000031  49.34000015
H    17.86999893  16.21000099  44.64000320
H    20.17000008  16.23999977  44.09000015
H    22.43999863  15.36999893  44.47999954
H    21.25000000  14.37999916  48.59000397
H    13.15000057  16.28999901  49.09000015
H    24.17000008  15.32999992  46.31000137
H    23.81000137  13.75000000  46.93000031
S    16.22999954  13.28999996  52.11999893
C    18.79999924  12.68000031  51.32999802
C    17.43999863  12.61999989  51.09000397
C    16.93000031  12.25000000  49.75999832
C    17.79999924  11.78999996  48.75999832
C    19.17000008  11.72999954  48.99000168
C    20.05000114  11.16000080  48.02999878
C    21.42000008  11.18999958  48.31999969
C    21.94999886  11.72000027  49.54000092
C    21.09000015  12.15000057  50.48999786
C    19.67000008  12.18999958  50.27000046
C    15.52000046  12.56000042  49.68999863
C    15.00000000  13.12000084  50.90000153
C    13.67000008  13.55000019  50.98999786
C    23.44000053  11.46000004  49.86000061
H    23.75683212  11.62561703  50.88970184
H    19.29000092  13.12000084  52.18999863
H    17.25000000  11.59000015  47.84000015
H    19.55999947  10.65000057  47.21000290
H    22.04000092  10.59000015  47.67000198
H    21.44000053  12.35999966  51.49000168
H    13.21000004  13.78999901  51.95000076
H    23.71000099  10.44999981  49.52000046
H    24.04000092  12.00000000  49.12000275
S    12.10999966  12.64999962  47.42000198
C     9.50000000  13.17999935  48.30999756
C    10.85999966  13.15000057  48.59000397
C    11.44000053  13.56999969  49.84000397
C    10.64000034  14.06000042  50.87999725
C     9.21000004  14.06000042  50.63000107
C     8.30000019  14.48999977  51.63000107
C     6.94000006  14.59000015  51.30000305
C     6.42000008  14.19999981  50.00000000
C     7.32999992  13.82999992  49.03999710
C     8.67999935  13.71000099  49.34999847
C    12.86000061  13.35000038  49.89999771
C    13.34000015  12.89000034  48.66000366
C    14.65999985  12.38000011  48.59000397
C     5.07000017  14.57999992  49.52999878
H     4.76065111  14.00348663  48.65819931
H     9.11999989  12.97999954  47.30999756
H    11.10000038  14.46000004  51.77000046
H     8.73999977  14.88999939  52.54000092
H     6.24000025  14.93999958  52.04000092
H     7.03000021  13.68999958  48.01000214
H    15.08999920  12.01000023  47.65999603
H     5.05999994  15.65000057  49.33000183
H     4.33999968  14.37999916  50.33000183
