96

S    11.90999985  16.64999962  44.06000137
C     9.35000038  17.02000046  44.81999969
C    10.59000015  16.61000061  45.20999908
C    10.98999977  16.38000107  46.55000305
C    10.01000023  16.45000076  47.55000305
C     8.67999935  16.86000061  47.22999954
C     7.65999985  16.95000076  48.22000122
C     6.35999966  17.13999939  47.88000107
C     5.95000029  17.34000015  46.53999710
C     6.91999960  17.39999962  45.54999924
C     8.30999947  17.15999985  45.81999969
C    12.41000080  16.23999977  46.62000275
C    13.07999992  16.46000099  45.37000275
C    14.47000027  16.55999947  45.25000000
C     4.53999996  17.36999893  46.25000000
H     4.32389736  17.03864288  45.23432159
H     9.03999996  17.20999908  43.79000092
H    10.21000004  16.46000099  48.61999893
H     7.79999971  16.61999893  49.23999786
H     5.63000011  17.13000107  48.68000031
H     6.67999983  17.46999931  44.48999786
H    14.96999931  16.64999962  44.27999878
H     3.98000002  16.75000000  46.95999908
H     4.26000023  18.42000008  46.43000031
S    15.67999935  15.90999985  49.06999969
C    18.32999992  15.46000004  48.33000183
C    17.09000015  15.98000050  48.01000214
C    16.65999985  16.35000038  46.65000153
C    17.61000061  16.35000038  45.70000076
C    18.96000099  16.04999924  46.04000092
C    19.92000008  16.06999969  44.98000336
C    21.19999886  15.62000084  45.30000305
C    21.56999969  15.19999981  46.62000275
C    20.62999916  15.06999969  47.60000229
C    19.32999992  15.54999924  47.32999802
C    15.21999931  16.47999954  46.43000031
C    14.56999969  16.10999870  47.64999771
C    13.17000008  16.03000069  47.76000214
C    23.01000214  14.91000080  46.88999939
H    23.22479439  15.13195229  47.93532181
H    18.53000069  14.91000080  49.23999786
H    17.32999992  16.59000015  44.66999817
H    19.57999992  16.45000076  44.02999878
H    22.06000137  15.80000019  44.65999985
H    20.88999939  14.93000031  48.64999771
H    12.76000023  15.67999935  48.69999695
H    23.64999962  15.50000000  46.22000122
H    23.22000122  13.83999920  46.75000000
S    16.13000107  13.35999966  52.18999863
C    18.75000000  12.64000034  51.55000305
C    17.43000031  12.55000019  51.22000122
C    16.92000008  12.06999969  49.99000168
C    17.77000046  11.54000092  49.09999847
C    19.18000031  11.51999950  49.40000153
C    20.09000015  10.95999908  48.41999817
C    21.47000122  10.95000076  48.79000092
C    21.91999817  11.49000072  50.02999878
C    21.02999878  12.15000057  50.87999725
C    19.63999939  12.10999966  50.61000061
C    15.52999973  12.34000015  49.82999802
C    14.96999931  12.93000031  50.98999786
C    13.63000011  13.27000046  51.09000397
C    23.40999985  11.21999931  50.33000183
H    23.70498466  11.66950321  51.27817154
H    19.14999962  13.09999943  52.44999695
H    17.31999969  11.13999939  48.20000076
H    19.71999931  10.48999977  47.50999832
H    22.19000053  10.38000011  48.20999908
H    21.40000153  12.56000042  51.81000137
H    13.25000000  13.78000069  51.97000122
H    23.68999863  10.15999985  50.37000275
H    23.97999954  11.63000011  49.48999786
S    12.22000027  12.35000038  47.55000305
C     9.53999996  12.94000053  48.26000214
C    10.93000031  12.92000008  48.57999802
C    11.39999962  13.43000031  49.84000397
C    10.48999977  13.82999992  50.76000214
C     9.15000057  13.86999989  50.54999924
C     8.23999977  14.35999966  51.52999878
C     6.90999985  14.39000034  51.25999832
C     6.43000031  13.96000004  49.97000122
C     7.30000019  13.55999947  49.01000214
C     8.65999985  13.48999977  49.22999954
C    12.81000042  13.10999966  49.93000031
C    13.36999989  12.53999901  48.77999878
C    14.73999977  12.10000038  48.79000092
C     4.88999987  14.01000023  49.68000031
H     4.61769009  13.53520298  48.73738861
H     9.17000008  12.65999985  47.28000259
H    10.77999973  14.11999893  51.77000046
H     8.56999969  14.68999958  52.50999832
H     6.17999983  14.68999958  52.00000000
H     7.00999975  13.40000057  47.97999954
H    15.19000053  11.69999981  47.88000107
H     4.53000021  15.03999901  49.72000122
H     4.34999990  13.50999928  50.48999786
