96

S    12.38999939  17.11000061  44.19000244
C     9.73999977  17.25000000  44.98000336
C    11.02000046  16.82999992  45.27999878
C    11.40999985  16.43000031  46.59000015
C    10.50000000  16.34000015  47.63000107
C     9.19999981  16.92000008  47.35000229
C     8.19999981  16.97000122  48.31999969
C     6.89000034  17.46999931  48.02000046
C     6.57999992  17.88999939  46.72000122
C     7.53000021  17.82999992  45.76000214
C     8.82999992  17.36999893  45.98999786
C    12.81000042  16.28000069  46.72999954
C    13.45999908  16.67000008  45.52000046
C    14.84000015  16.70999908  45.43000031
C     5.15999985  18.23999977  46.32999802
H     4.75970984  17.52675629  45.60947800
H     9.59999943  17.72999954  44.02000046
H    10.76000023  16.06999969  48.64999771
H     8.40999985  16.60000038  49.31999969
H     6.11999989  17.31999969  48.76999664
H     7.30000019  18.20999908  44.77000427
H    15.42000008  16.98999977  44.55999756
H     4.53999996  18.22999954  47.23999786
H     5.13999987  19.29000092  46.00000000
S    15.97000027  15.51000023  49.09000015
C    18.59000015  15.10000038  48.15999985
C    17.35999870  15.60999966  47.95999908
C    16.97999954  16.13999939  46.72000122
C    17.94000053  16.34000015  45.75000000
C    19.19999886  15.81999969  45.97000122
C    20.28000069  15.93999958  44.95999908
C    21.53000069  15.34999943  45.17000198
C    21.78999901  14.67000008  46.37000275
C    20.88000107  14.55999947  47.41000366
C    19.56999969  15.14999962  47.16999817
C    15.57999992  16.34000015  46.56999969
C    14.96000099  16.10999870  47.76000214
C    13.57999992  15.98999977  47.85999680
C    23.22000122  14.22999954  46.72000122
H    23.63562584  14.78894329  47.55841446
H    18.78000069  14.47999954  49.02999878
H    17.80999947  16.95000076  44.85000229
H    20.10999870  16.40999985  44.00000000
H    22.36000061  15.43000031  44.47999954
H    21.14999962  14.09000015  48.34999847
H    13.05999947  15.90000057  48.81000137
H    23.85000038  14.27000046  45.81999969
H    23.18000031  13.15000057  46.90000153
S    11.73999977  17.13999939  51.12999725
C     9.11000061  17.68000031  51.79999924
C    10.34999943  17.25000000  52.18999863
C    10.62000084  16.60000038  53.47000122
C     9.53999996  16.50000000  54.33000183
C     8.23000050  17.06999969  54.08000183
C     7.13000011  17.02999878  55.04000092
C     5.92999983  17.45000076  54.69999695
C     5.65999985  17.98999977  53.36999893
C     6.70000029  18.11000061  52.51999664
C     7.99000025  17.61999893  52.75000000
C    12.07999992  16.36999893  53.67000198
C    12.77999973  16.52000046  52.43999863
C    14.14999962  16.57999992  52.29000092
C     4.26000023  18.40999985  52.93000031
H     3.91062403  17.78254890  52.11003494
H     8.90999985  18.22999954  50.87999725
H     9.72999954  15.98000050  55.27000046
H     7.23000002  16.65999985  56.05999756
H     5.17000008  17.35999870  55.47000122
H     6.65999985  18.57999992  51.53999710
H    14.55000019  16.84999847  51.31999969
H     3.52999973  18.22999954  53.73000336
H     4.25000000  19.47999954  52.71999741
S    15.43000031  15.43000031  55.84000015
C    18.04000092  15.19000053  55.00999832
C    16.76000023  15.52999973  54.71000290
C    16.32999992  16.01000023  53.44999695
C    17.28000069  16.17000008  52.44999695
C    18.63000107  15.75000000  52.70000076
C    19.64999962  15.88999939  51.77000046
C    20.95999908  15.67000008  52.02000046
C    21.38000107  15.24000072  53.25000000
C    20.43000031  14.93999958  54.16999817
C    19.01000023  15.27999973  53.95000076
C    14.88999939  16.18000031  53.40999985
C    14.26000023  15.82999992  54.59000015
C    12.84000015  16.03000069  54.77000427
C    22.80999947  14.98999977  53.59000397
H    23.13927650  15.56806183  54.45343781
H    18.30999947  14.70999908  55.93999863
H    17.00000000  16.56999969  51.47999573
H    19.27999878  16.36999893  50.86999893
H    21.64999962  15.82999992  51.18999863
H    20.72000122  14.67000008  55.18000031
H    12.23000050  15.88999939  55.65000153
H    23.35000038  15.22999954  52.67000198
H    22.86999893  13.89000034  53.68000031
