96

S    12.05000019  16.64999962  44.15000153
C     9.56999969  17.40999985  44.77000427
C    10.64000034  16.70999908  45.19000244
C    10.95000076  16.40999985  46.56999969
C     9.89000034  16.42000008  47.47000122
C     8.60999966  17.00000000  47.02999878
C     7.44000006  16.90999985  47.85999680
C     6.19000006  17.32999992  47.34000397
C     6.07999992  17.95999908  46.11999893
C     7.23999977  18.05999947  45.27000046
C     8.51000023  17.53000069  45.65999985
C    12.41000080  16.28000069  46.72999954
C    13.14000034  16.39000130  45.52999878
C    14.50000000  16.22999954  45.34999847
C     4.69999981  18.45999908  45.61000061
H     4.23984194  17.80263138  44.87228394
H     9.44999981  17.79000092  43.75999832
H     9.98999977  15.98000050  48.46000290
H     7.55000019  16.59000015  48.89999771
H     5.33999968  17.32999992  48.01000214
H     7.07999992  18.38999939  44.25000000
H    14.86999989  16.31999969  44.34000015
H     4.03999996  18.50000000  46.49000168
H     4.67999983  19.42000008  45.07999802
S    15.65999985  15.65999985  49.08000183
C    18.15000153  14.88000011  48.39000320
C    16.97999954  15.46000004  48.01000214
C    16.68000031  15.75000000  46.68000031
C    17.71999931  15.77999973  45.80999756
C    18.96000099  15.42000008  46.18999863
C    19.93999863  15.24000072  45.15999603
C    21.21000099  14.73000050  45.45999908
C    21.53000069  14.47000027  46.81000137
C    20.58000183  14.55999947  47.80000305
C    19.22999954  14.91000080  47.45999908
C    15.26999950  15.95000076  46.52000046
C    14.55999947  15.80999947  47.70000076
C    13.20000076  15.95999908  47.84000015
C    22.93000031  13.94999981  47.19999695
H    23.33143997  14.38011360  48.11757660
H    18.39999962  14.65999985  49.43000031
H    17.56000137  16.03000069  44.75999832
H    19.70000076  15.50000000  44.13000107
H    21.87999916  14.63000107  44.61000061
H    20.81999969  14.19999981  48.80000305
H    12.81999969  15.81999969  48.83999634
H    23.61999893  14.19999981  46.38999939
H    22.77000046  12.88000011  47.35000229
S    11.63000011  17.28999901  50.75000000
C     8.90999985  17.53999901  51.50000000
C    10.19999981  17.10000038  51.79999924
C    10.57999992  16.69000053  53.11000061
C     9.61999989  16.65999985  54.13000107
C     8.27000046  17.01000023  53.86000061
C     7.26999998  17.04000092  54.87999725
C     6.00000000  17.48999977  54.59000015
C     5.68000031  17.93000031  53.27999878
C     6.61999989  18.04999924  52.29999924
C     7.94000053  17.53000069  52.55000305
C    12.02999973  16.51000023  53.31999969
C    12.71999931  16.73999977  52.08000183
C    14.11999893  16.56999969  52.06999969
C     4.25000000  18.20000076  52.85999680
H     3.93266129  17.60058403  52.00671387
H     8.69999981  17.86999893  50.48999786
H     9.90999985  16.50000000  55.15999603
H     7.49000025  16.55999947  55.83000183
H     5.21000004  17.39999962  55.33000183
H     6.35999966  18.37000084  51.29000092
H    14.61999989  16.79000092  51.12999725
H     3.58999991  18.07999992  53.73000336
H     4.25000000  19.27999878  52.65999603
S    15.05000019  15.48999977  55.90000153
C    17.73999977  15.06000042  55.15999603
C    16.53000069  15.52000046  54.79999924
C    16.23999977  16.06999969  53.53000259
C    17.28000069  16.10000038  52.56999969
C    18.61999893  15.85999966  53.00000000
C    19.73999977  15.81999969  52.09000015
C    20.96999931  15.40999985  52.37999725
C    21.24000168  14.98000050  53.69999695
C    20.15000153  14.77000046  54.56999969
C    18.88000107  15.25000000  54.29999924
C    14.80999947  16.20000076  53.25000000
C    14.09000015  16.17000008  54.47999954
C    12.72999954  16.28999901  54.52999878
C    22.62000084  14.55000019  54.15000153
H    22.87482262  15.08795643  55.06311035
H    17.88999939  14.50000000  56.07999802
H    17.02999878  16.36999893  51.55000305
H    19.42000008  16.09000015  51.09000397
H    21.73000145  15.31999969  51.59999847
H    20.31999969  14.28999996  55.52999878
H    12.17000008  16.25000000  55.45999908
H    23.36999893  14.91000080  53.43000031
H    22.60000038  13.45999908  54.27000046
