96

S    12.13999939  16.81999969  44.09000015
C     9.47000027  17.26000023  44.79999924
C    10.75000000  16.79999924  45.13999939
C    11.03999996  16.61000061  46.51000214
C    10.03999901  16.63999939  47.43999863
C     8.71999931  16.90999985  47.11000061
C     7.62000036  16.93000031  48.02000046
C     6.32999992  17.35000038  47.68000031
C     6.07999992  17.75000000  46.31000137
C     7.13000011  17.86999893  45.41999817
C     8.45000076  17.32999992  45.75000000
C    12.44999981  16.36999893  46.62000275
C    13.17999935  16.46000099  45.40999985
C    14.52999973  16.31000137  45.34000015
C     4.72000027  18.19000053  45.80999756
H     4.26129150  17.39636230  45.22023010
H     9.30000019  17.61999893  43.79000092
H    10.24000072  16.47999954  48.50000000
H     7.73000002  16.61999893  49.05000305
H     5.46999979  17.22999954  48.33000183
H     6.98999977  18.20999908  44.40000153
H    15.11000061  16.50000000  44.45000076
H     4.07999992  18.30000114  46.70000076
H     4.73000002  19.14999962  45.27999878
S    15.52999973  15.32999992  49.02000046
C    18.29000092  15.27999973  48.50000000
C    16.98999977  15.70000076  48.08000183
C    16.69000053  16.07999992  46.72000122
C    17.76000023  16.10000038  45.79000092
C    19.05999947  15.65999985  46.19999695
C    20.17000008  15.62999916  45.28999710
C    21.38000107  15.13000011  45.63999939
C    21.56999969  14.63999939  46.93000031
C    20.59000015  14.75999928  47.84000015
C    19.30999947  15.25000000  47.50999832
C    15.24000072  16.04999924  46.47999573
C    14.47999954  15.84000015  47.63999939
C    13.09999943  15.98999977  47.74000168
C    23.02999878  14.21000004  47.29999924
H    23.43535614  14.84208202  48.09009933
H    18.45000076  14.84000015  49.48999786
H    17.61000061  16.39999962  44.75999832
H    19.97999954  16.05999947  44.31000137
H    22.13999939  14.98999977  44.87999725
H    20.68000031  14.45000076  48.87000275
H    12.63000011  15.75000000  48.68999863
H    23.55999947  14.34000015  46.36000061
H    23.19000053  13.17000008  47.62000275
S    16.28999901  12.81000042  52.29000092
C    18.89999962  12.23999977  51.56000137
C    17.57999992  12.20999908  51.20999908
C    17.14999962  11.97999954  49.87999725
C    18.07999992  11.69999981  48.85000229
C    19.45000076  11.64999962  49.20999908
C    20.42000008  11.17000008  48.30999756
C    21.70000076  10.88999939  48.74000168
C    22.13999939  11.19999981  50.01999664
C    21.21000099  11.68000031  50.96000290
C    19.85000038  11.90000057  50.56999969
C    15.69000053  12.23000050  49.78000259
C    15.17000008  12.81999969  50.93999863
C    13.86999989  13.34000015  51.00000000
C    23.59000015  11.00999928  50.34000015
H    23.89706993  11.31706905  51.33975983
H    19.26000023  12.63000011  52.50999832
H    17.86000061  11.28999901  47.85999680
H    20.00000000  10.84000015  47.36000061
H    22.46000099  10.55999947  48.02999878
H    21.44000053  11.71000004  52.02000046
H    13.50999928  13.81000042  51.90000153
H    23.80000114   9.94999981  50.14999771
H    24.25000000  11.49000072  49.59999847
S    12.51999950  12.28000069  47.39999771
C     9.90999985  12.96000004  48.02999878
C    11.25000000  12.97999954  48.37999725
C    11.67000008  13.43000031  49.72000122
C    10.73999977  13.94999981  50.56999969
C     9.34000015  13.78999901  50.22999573
C     8.38000011  14.18000031  51.22000122
C     7.00000000  14.11999893  50.93999863
C     6.61000013  13.69999981  49.65000153
C     7.50000000  13.15999985  48.75000000
C     8.89999962  13.22000027  49.01000214
C    13.04999924  13.03999996  49.87999725
C    13.63999939  12.48000050  48.75999832
C    14.86999989  12.02999973  48.68999863
C     5.19999981  13.86999989  49.33000183
H     4.96602726  13.57753468  48.30636978
H     9.63999939  12.67000008  47.02000046
H    11.00999928  14.28999996  51.56999969
H     8.67999935  14.63999939  52.15999985
H     6.30000019  14.51000023  51.66999817
H     7.18999958  12.77999973  47.77999878
H    15.21000004  11.65999985  47.71999741
H     4.92999983  14.92000008  49.52999878
H     4.55999994  13.27000046  50.00000000
