96

S    12.01000023  17.48999977  44.31999969
C     9.35000038  17.89999962  45.06999969
C    10.55999947  17.35999870  45.31999969
C    10.82999992  16.79999924  46.58000183
C     9.86999989  16.69999886  47.61000061
C     8.61999989  17.23999977  47.36999893
C     7.59000015  17.19000053  48.34000015
C     6.21999979  17.56000137  47.95999908
C     5.88999987  18.06999969  46.70999908
C     6.96000004  18.12999916  45.79000092
C     8.27000046  17.72999954  46.04999924
C    12.28000069  16.55999947  46.76000214
C    13.02000046  16.97000122  45.63999939
C    14.35999966  16.75000000  45.50000000
C     4.44999981  18.23999977  46.38999939
H     4.11445284  17.71169281  45.49758911
H     9.15000057  18.53999901  44.22000122
H    10.26000023  16.28000069  48.53000259
H     7.78999996  16.61000061  49.22999954
H     5.42999983  17.20999908  48.62999725
H     6.77999973  18.40999985  44.75999832
H    14.86999989  17.04000092  44.58000183
H     3.88999987  18.02000046  47.30999756
H     4.39000034  19.32999992  46.23000336
S    15.40999985  15.62000084  49.13000107
C    18.09000015  15.34000015  48.50999832
C    16.84999847  15.73999977  48.13999939
C    16.54000092  16.15999985  46.81000137
C    17.56000137  16.40999985  45.90000153
C    18.86000061  15.93000031  46.19999695
C    19.89999962  16.10999870  45.26000214
C    21.17000198  15.65999985  45.58000183
C    21.40000153  15.14999962  46.86999893
C    20.43000031  15.01000023  47.80000305
C    19.09000015  15.46000004  47.55000305
C    15.08999920  16.28000069  46.62000275
C    14.32000065  16.01000023  47.77999878
C    12.98999977  16.11999893  47.87000275
C    22.80999947  14.73000050  47.27000427
H    23.18906784  15.23780823  48.15687561
H    18.15000153  14.88999939  49.50000000
H    17.29999924  16.79999924  44.92000198
H    19.73999977  16.70999908  44.36000061
H    21.98999786  15.73999977  44.87999725
H    20.61000061  14.57999992  48.77999878
H    12.48999977  15.85999966  48.79000092
H    23.52000046  14.88999939  46.44000244
H    22.79000092  13.66000080  47.51999664
S    11.68000031  17.60000038  51.00000000
C     8.94999981  17.71999931  51.76000214
C    10.25000000  17.43999863  52.04999924
C    10.62999916  16.95999908  53.36999893
C     9.61999989  16.69999886  54.27999878
C     8.27000046  17.04000092  54.02999878
C     7.22000027  16.98999977  55.01999664
C     5.89999962  17.31999969  54.79999924
C     5.51999998  17.84000015  53.54000092
C     6.53999996  17.97000122  52.57999802
C     7.88000011  17.54999924  52.75000000
C    12.06999969  16.92000008  53.54000092
C    12.81000042  17.20999908  52.34000397
C    14.19999981  16.95999908  52.23999786
C     4.17000008  18.30000114  53.18999863
H     3.82269144  17.73477173  52.32513428
H     8.69000053  18.18000031  50.80999756
H     9.92000008  16.36000061  55.27000046
H     7.46000004  16.54999924  55.98999786
H     5.23999977  17.32999992  55.66999817
H     6.30000019  18.47999954  51.65000153
H    14.72000027  17.09000015  51.29000092
H     3.47000003  18.05999947  54.00000000
H     4.13000011  19.37999916  52.98999786
S    15.13000011  15.86999989  55.96000290
C    17.84000015  15.47999954  55.30000305
C    16.54000092  15.88000107  54.93999863
C    16.22999954  16.28999901  53.63999939
C    17.23999977  16.36000061  52.67000198
C    18.53999901  15.95000076  52.95000076
C    19.63999939  15.98000050  52.06999969
C    20.88999939  15.54999924  52.41000366
C    21.17000198  15.13000011  53.69999695
C    20.12000084  15.08999920  54.61000061
C    18.84000015  15.50000000  54.31000137
C    14.84000015  16.60000038  53.41999817
C    14.09000015  16.32999992  54.58000183
C    12.76999950  16.50000000  54.66999817
C    22.60999870  14.85000038  54.13999939
H    22.83865166  15.40818024  55.04788208
H    18.09000015  15.00000000  56.24000168
H    17.01000023  16.60000038  51.63000107
H    19.47000122  16.36999893  51.06999969
H    21.63999939  15.55999947  51.63000107
H    20.27000046  14.78999996  55.65000153
H    12.20000076  16.15999985  55.52999878
H    23.25000000  15.14000034  53.29999924
H    22.70000076  13.76999950  54.29999924
