96

S    12.42000008  16.84000015  44.16999817
C     9.81000042  17.30999947  44.92000198
C    11.07999992  16.90000153  45.26000214
C    11.40999985  16.39000130  46.51000214
C    10.38000011  16.03999901  47.38999939
C     9.10000038  16.54000092  47.14000320
C     8.14000034  16.57999992  48.15000153
C     6.84000015  17.06999969  47.85999680
C     6.52999973  17.60000038  46.59000015
C     7.48000050  17.70000076  45.65000153
C     8.78999996  17.15999985  45.87999725
C    12.79999924  16.18999863  46.68000031
C    13.53000069  16.35000038  45.45999908
C    14.88999939  16.36000061  45.38999939
C     5.19999981  18.12999916  46.31000137
H     4.72475576  17.49161148  45.56521606
H     9.55000019  17.87999916  44.03999710
H    10.59999943  15.72000027  48.40000153
H     8.36000061  16.18999863  49.13000107
H     6.10000038  17.14999962  48.63999939
H     7.30000019  18.22999954  44.72000122
H    15.48999977  16.72000122  44.55999756
H     4.65999985  18.20999908  47.25999832
H     5.23999977  19.15999985  45.90999985
S    16.05999947  15.57999992  49.12000275
C    18.71000099  15.21000004  48.36000061
C    17.46000099  15.57999992  48.00000000
C    17.07999992  15.97000027  46.63999939
C    18.15000153  16.22999954  45.79000092
C    19.40000153  15.80999947  46.05999756
C    20.46999931  16.00000000  45.13000107
C    21.73000145  15.62000084  45.38999939
C    22.01000023  14.88000011  46.59000015
C    21.07000160  14.85999966  47.60000229
C    19.76000023  15.24000072  47.36999893
C    15.62000084  16.09000015  46.52999878
C    14.91000080  15.90000057  47.74000168
C    13.50999928  15.92000008  47.81000137
C    23.42000008  14.52000046  46.97999954
H    23.74681854  14.95575809  47.92414093
H    18.76000023  14.84000015  49.38000107
H    18.09000015  16.77999878  44.85000229
H    20.17000008  16.46000099  44.19000244
H    22.56000137  15.78999996  44.71000290
H    21.45000076  14.37999916  48.50999832
H    13.12000084  15.88000107  48.81999969
H    24.15999985  14.85999966  46.24000168
H    23.52999878  13.43000031  47.11000061
S    11.73999977  17.05999947  50.86999893
C     9.13999939  17.64999962  51.70999908
C    10.36000061  17.12000084  51.95000076
C    10.75000000  16.82999992  53.31999969
C     9.72999954  16.64999962  54.31999969
C     8.36000061  16.95000076  54.06000137
C     7.26000023  16.79000092  54.93999863
C     5.98999977  17.20999908  54.68000031
C     5.73999977  17.77000046  53.41999817
C     6.80999994  17.94999886  52.49000168
C     8.14999962  17.56999969  52.77999878
C    12.18999958  16.57999992  53.40999985
C    12.82999992  16.84000015  52.18999863
C    14.21000004  16.79999924  52.15999985
C     4.34999990  18.18000031  52.90000153
H     4.05341339  17.69718552  51.96886063
H     8.90999985  18.00000000  50.70000076
H     9.98000050  16.38000107  55.34000015
H     7.46999979  16.27000046  55.86999893
H     5.23999977  17.05000114  55.45000076
H     6.51999998  18.22999954  51.47999573
H    14.85999966  16.97000122  51.30000305
H     3.61999989  17.85000038  53.63999939
H     4.23999977  19.27000046  52.90000153
S    15.31999969  15.88000107  55.90000153
C    18.02999878  15.57999992  55.15999603
C    16.70999908  15.88999939  54.77000427
C    16.38000107  16.40999985  53.48999786
C    17.34000015  16.40999985  52.51999664
C    18.68000031  16.10999870  52.84000015
C    19.70000076  16.07999992  51.86000061
C    20.96999931  15.62999916  52.11000061
C    21.31000137  15.31999969  53.41999817
C    20.38999939  15.42000008  54.41999817
C    19.04999924  15.77999973  54.16999817
C    14.93000031  16.54999924  53.34000015
C    14.26000023  16.22999954  54.54000092
C    12.89999962  16.27000046  54.59000015
C    22.67000008  14.75000000  53.75000000
H    23.04686546  15.25500202  54.63940811
H    18.20999908  15.06999969  56.10000229
H    17.00000000  16.61999893  51.51000214
H    19.47999954  16.43000031  50.84999847
H    21.76000214  15.52999973  51.38000107
H    20.65999985  15.13000011  55.43000031
H    12.48999977  16.28000069  55.59999847
H    23.35000038  14.91000080  52.90999985
H    22.67999840  13.68000031  53.96999741
