96

S    11.94000053  16.84999847  43.85000229
C     9.30000019  17.38000107  44.54999924
C    10.52000046  16.84000015  44.87999725
C    10.77000046  16.47999954  46.23000336
C     9.75000000  16.29999924  47.06999969
C     8.48999977  16.84000015  46.84999847
C     7.50000000  17.02000046  47.83000183
C     6.28999996  17.64000130  47.48000336
C     5.96000004  18.05999947  46.16000366
C     6.98999977  17.98999977  45.25000000
C     8.30999947  17.43000031  45.48999786
C    12.23999977  16.34000015  46.42000198
C    13.02999973  16.60000038  45.24000168
C    14.42000008  16.64999962  45.26000214
C     4.61999989  18.57999992  45.79999924
H     4.31304836  18.11226463  44.86452866
H     9.13000011  17.71000099  43.52000427
H    10.10000038  16.10000038  48.09000015
H     7.63000011  16.61000061  48.81999969
H     5.46999979  17.52000046  48.18999863
H     6.67000008  18.23999977  44.23999786
H    14.94999981  16.84999847  44.33000183
H     3.86999989  18.42000008  46.58000183
H     4.56999969  19.65999985  45.59999847
S    15.34000015  15.60999966  48.95000076
C    17.94999886  15.19000053  48.34000015
C    16.72999954  15.60999966  47.95999908
C    16.48999977  16.17000008  46.66999817
C    17.53000069  16.35000038  45.75000000
C    18.78000069  15.88999939  46.09000397
C    19.85999870  16.05999947  45.19000244
C    21.14000130  15.64000034  45.45999908
C    21.35000038  15.17000008  46.76000214
C    20.38999939  14.96999931  47.71999741
C    19.04000092  15.34000015  47.41000366
C    15.07999992  16.36999893  46.44000244
C    14.34999943  16.03000069  47.58999634
C    12.94000053  15.85000038  47.52999878
C    22.77000046  14.88000011  47.05999756
H    23.10612297  15.32116222  47.99834442
H    18.15000153  14.73999977  49.29999924
H    17.28999901  16.69999886  44.75000000
H    19.64999962  16.54999924  44.25000000
H    21.94999886  16.03000069  44.85000229
H    20.63999939  14.56999969  48.69999695
H    12.43999958  15.36999893  48.36999893
H    23.40999985  15.36999893  46.31000137
H    22.89999962  13.78999901  47.00000000
S    15.55999947  13.27999973  52.22000122
C    18.11000061  12.84999943  51.65000153
C    16.82999992  12.71999931  51.25000000
C    16.46000099  12.28000069  49.86999893
C    17.48999977  12.02000046  49.01000214
C    18.89999962  12.13000107  49.41999817
C    19.93999863  11.87000084  48.53000259
C    21.25000000  11.89000034  48.99000168
C    21.50000000  12.15999985  50.33000183
C    20.48000145  12.44999981  51.22000122
C    19.17000008  12.46999931  50.81999969
C    15.03999901  12.46999931  49.72999954
C    14.40999985  13.01000023  50.90999985
C    13.03999996  13.26000023  50.93999863
C    22.90999985  12.32999992  50.77999878
H    23.27055550  11.38972664  51.19711685
H    18.40999985  13.27999973  52.58999634
H    17.35999870  11.72999954  47.97000122
H    19.75000000  11.56999969  47.50999832
H    22.01999855  11.82000065  48.22999954
H    20.56999969  12.81999969  52.22999954
H    12.60000038  13.71999931  51.81999969
H    23.61999893  12.64000034  50.00000000
H    23.03999901  13.15000057  51.51000214
S    11.69999981  12.11999989  47.45999908
C     9.01000023  12.92000008  48.22000122
C    10.34999943  12.79000092  48.52000427
C    10.85999966  13.22999954  49.77000427
C    10.03999901  13.73999977  50.72000122
C     8.60999966  13.81000042  50.51000214
C     7.82000017  14.37999916  51.52999878
C     6.51000023  14.68000031  51.23000336
C     5.97000027  14.42999935  49.93000031
C     6.76000023  13.86999989  48.90999603
C     8.11999989  13.50000000  49.18000031
C    12.28999996  13.04999924  49.87999725
C    12.84000015  12.50000000  48.72000122
C    14.21000004  12.17000008  48.68000031
C     4.59000015  14.89999962  49.54999924
H     4.27044725  14.58754826  48.55583572
H     8.53999996  12.53000069  47.31999969
H    10.55999947  14.04999924  51.62000275
H     8.30999947  14.94999981  52.30999756
H     5.92000008  15.26999950  51.91999817
H     6.42000008  14.01000023  47.88999939
H    14.72000027  11.87999916  47.77000046
H     4.71000004  15.98000050  49.68999863
H     3.84000015  14.57999992  50.27999878
