96

S    11.87999916  17.40999985  43.75999832
C     9.32999992  17.79999924  44.68999863
C    10.57000065  17.30999947  44.92000198
C    10.98000050  16.92000008  46.23000336
C    10.00000000  16.80999947  47.21000290
C     8.60999966  17.05000114  46.86000061
C     7.62000036  16.97000122  47.87000275
C     6.32999992  17.15999985  47.56999969
C     5.92000008  17.79999924  46.35000229
C     6.90999985  18.07999992  45.44000244
C     8.22000027  17.60000038  45.63000107
C    12.46999931  16.73999977  46.31999969
C    13.09999943  16.97999954  45.05000305
C    14.48999977  16.98999977  45.05000305
C     4.53999996  18.29000092  46.00999832
H     4.18126440  17.91016197  45.05337143
H     9.13000011  18.36000061  43.79000092
H    10.22999954  16.40999985  48.18999863
H     7.88000011  16.68000031  48.88000107
H     5.52999973  16.93000031  48.26000214
H     6.61999989  18.64999962  44.55999756
H    14.98000050  17.32999992  44.15000153
H     3.78999996  18.15000153  46.79999924
H     4.65000010  19.37999916  45.89000320
S    15.67000008  16.05999947  48.73000336
C    18.29000092  15.85000038  48.01000214
C    17.00000000  16.03999901  47.58999634
C    16.69999886  16.35000038  46.23000336
C    17.76000023  16.27000046  45.27999878
C    19.11000061  15.97000027  45.70000076
C    20.22000122  15.80999947  44.79000092
C    21.45000076  15.57000065  45.26000214
C    21.80999947  15.47999954  46.65000153
C    20.73999786  15.72999954  47.47000122
C    19.38999939  15.84000015  47.04999924
C    15.21000004  16.59000015  46.14999771
C    14.53999996  16.38000107  47.41000366
C    13.17000008  16.54000092  47.48000336
C    23.21000099  15.07999992  47.15000153
H    23.39354324  15.38355255  48.18066406
H    18.44000053  15.65999985  49.06999969
H    17.40999985  16.47999954  44.27999878
H    19.96000099  15.85999966  43.74000168
H    22.11999893  15.29000092  44.45999908
H    20.89999962  15.78999996  48.54000092
H    12.69999981  16.47999954  48.44999695
H    24.05999947  15.57999992  46.66999817
H    23.19000053  14.00000000  46.97999954
S    16.35000038  12.90999985  51.91999817
C    18.92000008  12.38999939  51.22000122
C    17.56999969  12.32999992  50.86000061
C    17.11000061  12.10000038  49.54999924
C    18.06999969  11.82999992  48.54000092
C    19.43000031  11.82000065  48.90999603
C    20.48000145  11.54000092  47.93000031
C    21.81999969  11.44000053  48.29999924
C    22.19000053  11.64999962  49.68000031
C    21.24000168  12.03999996  50.61000061
C    19.85000038  12.11999989  50.19000244
C    15.71000004  12.48000050  49.43000031
C    15.15999985  13.05999947  50.54000092
C    13.81000042  13.30000019  50.63999939
C    23.65999985  11.26000023  50.06999969
H    23.83624268  11.49046993  51.12067795
H    19.19000053  12.63000011  52.25000000
H    17.81999969  11.65999985  47.50000000
H    20.13999939  11.32999992  46.91999817
H    22.50000000  11.05999947  47.56000137
H    21.40000153  12.30000019  51.65999985
H    13.35000038  13.43000031  51.60999680
H    23.65999985  10.18000031  49.91000366
H    24.43000031  11.71000004  49.43000031
S    12.23000050  12.51999950  47.14000320
C     9.67000008  13.20000076  48.06000137
C    11.03000069  13.12000084  48.33000183
C    11.56999969  13.34000015  49.56999969
C    10.75000000  13.61999989  50.63999939
C     9.35000038  13.82999992  50.38999939
C     8.50000000  14.19999981  51.44000244
C     7.16000032  14.34999943  51.27999878
C     6.61999989  14.09999943  50.00000000
C     7.39000034  13.80000019  48.92000198
C     8.82000065  13.67000008  49.06999969
C    13.01000023  13.19000053  49.52000046
C    13.53999996  12.67000008  48.36000061
C    14.89999962  12.30999947  48.26000214
C     5.15999985  14.29999924  49.66999817
H     4.84094715  13.84222794  48.73365021
H     9.11000061  12.82999992  47.19999695
H    11.13999939  13.96999931  51.59000015
H     8.96000004  14.39000034  52.39999771
H     6.47000027  14.80000019  51.98999786
H     6.86999989  13.73999977  47.97000122
H    15.26999950  11.79999924  47.37999725
H     5.03000021  15.38000011  49.78000259
H     4.69000006  13.93000031  50.58000183
