96

S    12.18999958  17.18000031  44.18000031
C     9.63000011  17.57999992  44.98000336
C    10.82999992  17.09000015  45.27000046
C    11.17000008  16.44000053  46.51000214
C    10.21000004  16.53000069  47.49000168
C     8.96000004  17.06999969  47.21000290
C     7.86999989  16.97999954  48.13999939
C     6.61999989  17.46000099  47.80000305
C     6.40999985  17.98999977  46.52999878
C     7.36000013  18.04999924  45.59999847
C     8.63000011  17.61000061  45.90999985
C    12.53000069  16.10999870  46.59000015
C    13.22000027  16.57999992  45.44000244
C    14.57999992  16.46999931  45.33000183
C     4.92999983  18.19000053  46.06999969
H     4.69018316  17.63983154  45.16010666
H     9.48000050  17.97000122  43.96999741
H    10.36999893  15.86999989  48.34000015
H     8.03999996  16.42000008  49.05000305
H     5.80999947  17.32999992  48.50000000
H     7.14999962  18.26000023  44.55999756
H    15.11999989  16.72000122  44.40999985
H     4.34999990  17.71999931  46.86000061
H     4.63999987  19.25000000  46.00000000
S    15.67999935  15.50000000  49.08000183
C    18.26000023  14.98999977  48.34000015
C    17.09000015  15.52000046  47.98999786
C    16.77000046  15.98000050  46.69000244
C    17.84000015  16.10999870  45.80999756
C    19.17000008  15.64000034  46.12999725
C    20.13000107  15.50000000  45.12000275
C    21.32999802  14.98999977  45.45999908
C    21.68999863  14.63999939  46.75000000
C    20.69999886  14.63000107  47.72999573
C    19.36000061  15.10000038  47.42000198
C    15.29000092  16.14999962  46.45999908
C    14.59000015  15.90000057  47.70000076
C    13.23999977  15.80000019  47.71999741
C    23.15000153  14.34999943  47.18999863
H    23.41356659  14.82014465  48.13741302
H    18.40999985  14.51000023  49.31000137
H    17.71999931  16.47999954  44.79999924
H    19.77000046  15.65000057  44.10999680
H    22.14999962  14.98999977  44.75000000
H    20.88999939  14.22000027  48.72000122
H    12.72999954  15.53999996  48.64999771
H    23.77000046  14.80999947  46.40999603
H    23.48999977  13.30999947  47.25000000
S    11.84000015  16.87000084  51.00999832
C     9.35000038  17.52000046  51.88000107
C    10.51000023  16.94000053  52.15000153
C    10.88000107  16.39999962  53.44999695
C     9.90999985  16.51000023  54.43000031
C     8.65999985  17.02999878  54.13999939
C     7.55999994  16.98999977  55.15999603
C     6.37000036  17.52000046  54.93999863
C     6.11999989  18.04000092  53.61000061
C     7.16000032  18.18000031  52.67000198
C     8.42000008  17.57999992  52.91999817
C    12.34000015  16.13999939  53.53000259
C    13.00000000  16.36000061  52.30999756
C    14.40999985  16.43000031  52.25999832
C     4.69000006  18.40999985  53.22000122
H     4.36911011  17.83385468  52.35213852
H     9.07999992  17.88999939  50.89000320
H     9.96999931  16.31999969  55.50000000
H     7.86000013  16.46000099  56.05999756
H     5.63000011  17.50000000  55.73999786
H     6.96000004  18.53000069  51.65999985
H    14.82999992  16.72999954  51.30000305
H     3.95000005  18.39999962  54.02000046
H     4.74000025  19.45999908  52.90000153
S    15.47999954  15.03999901  55.81999969
C    18.11000061  14.55000019  54.95999908
C    16.84999847  15.11999989  54.68999863
C    16.53000069  15.77999973  53.43000031
C    17.47999954  15.80999947  52.45999908
C    18.81000137  15.31000042  52.74000168
C    19.75000000  15.52999973  51.75000000
C    21.07999992  15.21999931  51.97000122
C    21.45000076  14.45000076  53.16999817
C    20.52000046  14.32000065  54.18000031
C    19.15999985  14.75999928  54.01000214
C    15.14999962  16.03999901  53.34000015
C    14.44000053  15.62000084  54.54999924
C    13.07999992  15.73999977  54.65000153
C    22.90999985  14.26000023  53.54999924
H    23.23893356  14.94527721  54.33121490
H    18.29000092  13.96000004  55.84999847
H    17.13000107  16.28000069  51.55000305
H    19.42000008  15.93000031  50.79999924
H    21.83000183  15.53999996  51.25000000
H    20.95000076  13.89999962  55.07999802
H    12.61999989  15.46000004  55.59000015
H    23.67000198  14.27000046  52.77000046
H    22.88000107  13.20000076  53.81999969
