96

S    12.32999992  16.93000031  44.22000122
C     9.71000004  17.47999954  45.11000061
C    10.95999908  16.88999939  45.37000275
C    11.36000061  16.47999954  46.68000031
C    10.39000034  16.48999977  47.71999741
C     9.07999992  16.95000076  47.48000336
C     8.14000034  17.13000107  48.48999786
C     6.80999994  17.36999893  48.16999817
C     6.44000006  17.60000038  46.77999878
C     7.36999989  17.61000061  45.79999924
C     8.71999931  17.32999992  46.11000061
C    12.76999950  16.39000130  46.79000092
C    13.45000076  16.62999916  45.56000137
C    14.86999989  16.60000038  45.52000046
C     4.98000002  17.84000015  46.42000198
H     4.57481050  17.25317383  45.59564972
H     9.48000050  17.78000069  44.09000015
H    10.64000034  16.38000107  48.76999664
H     8.47999954  16.80999947  49.47000122
H     6.06999969  17.40999985  48.95999908
H     7.00999975  17.86000061  44.80999756
H    15.53999996  16.72000122  44.66999817
H     4.39000034  17.81999969  47.35000229
H     4.94999981  18.92000008  46.20999908
S    15.88999939  15.39000034  49.23999786
C    18.51000023  15.10000038  48.47999954
C    17.28000069  15.55999947  48.16999817
C    16.98999977  16.04999924  46.81000137
C    18.02000046  16.21000099  45.87999725
C    19.29999924  15.78999996  46.29000092
C    20.34000015  15.77000046  45.35999680
C    21.57999992  15.36000061  45.72000122
C    21.90999985  14.96999931  47.09000015
C    20.90999985  14.85000038  48.04000092
C    19.54000092  15.26999950  47.60000229
C    15.52999973  16.18000031  46.66999817
C    14.82999992  15.95000076  47.88999939
C    13.50000000  16.09000015  47.97000122
C    23.25000000  14.57999992  47.43999863
H    23.65340424  15.21077538  48.23213959
H    18.68000031  14.60000038  49.43000031
H    17.76000023  16.62999916  44.91000366
H    20.20999908  16.15999985  44.36000061
H    22.34000015  15.36000061  44.93999863
H    20.95999908  14.42000008  49.03999710
H    12.92000008  15.88000107  48.87000275
H    23.88999939  14.67000008  46.56000137
H    23.22999954  13.53999996  47.78999710
S    11.51000023  17.28999901  50.93999863
C     8.89000034  17.82999992  51.84000015
C    10.10000038  17.29999924  52.08000183
C    10.47000027  16.82999992  53.36999893
C     9.47000027  16.84999847  54.34000015
C     8.21000004  17.35999870  54.09999847
C     7.09999990  17.21999931  55.00999832
C     5.88000011  17.71999931  54.62999725
C     5.60999966  18.32999992  53.36999893
C     6.61999989  18.32999992  52.50000000
C     7.90999985  17.85000038  52.81000137
C    11.95000076  16.70999908  53.54000092
C    12.63000011  16.87999916  52.34000397
C    14.00000000  16.77000046  52.30999756
C     4.21999979  18.60999870  52.84999847
H     3.89402390  17.89562607  52.09401321
H     8.67999935  18.26000023  50.86999893
H     9.68999958  16.46000099  55.33000183
H     7.23000002  16.55999947  55.86999893
H     5.03999996  17.56000137  55.30000305
H     6.42000008  18.84000015  51.56000137
H    14.51000023  16.77999878  51.35000229
H     3.61000013  18.60000038  53.75999832
H     4.28000021  19.62000084  52.42000198
S    15.10000038  15.70000076  55.93999863
C    17.81999969  15.40999985  55.28999710
C    16.54000092  15.80000019  54.87999725
C    16.11999893  16.17000008  53.57999802
C    17.18000031  16.22999954  52.62000275
C    18.53999901  15.90999985  52.97000122
C    19.68000031  15.92000008  52.05999756
C    20.96999931  15.54999924  52.36999893
C    21.14000130  15.22999954  53.70999908
C    20.20000076  15.22999954  54.65000153
C    18.85000038  15.50000000  54.33000183
C    14.70000076  16.36000061  53.47999954
C    13.97999954  16.15999985  54.66999817
C    12.63000011  16.28999901  54.68999863
C    22.55000114  14.85000038  54.12000275
H    22.76865768  15.04679108  55.16955566
H    18.02999878  15.03999901  56.29000092
H    17.06999969  16.64999962  51.62000275
H    19.45999908  16.36999893  51.09000397
H    21.64999962  15.19000053  51.59999847
H    20.39999962  14.98000050  55.68999863
H    12.05999947  16.03000069  55.56999969
H    23.23999786  15.47999954  53.54999924
H    22.84000015  13.81000042  53.89999771
