96

S    12.48000050  17.06999969  44.12000275
C     9.77999973  17.31999969  44.79000092
C    11.00999928  16.81999969  45.14999771
C    11.31000042  16.39000130  46.45999908
C    10.36000061  16.28000069  47.42000198
C     9.04999924  16.69999886  47.09999847
C     7.94000053  16.46000099  47.95000076
C     6.72999954  17.02000046  47.75000000
C     6.50000000  17.79000092  46.58000183
C     7.50000000  17.86999893  45.65999985
C     8.82000065  17.34000015  45.84999847
C    12.81000042  16.15999985  46.58000183
C    13.53999996  16.54000092  45.38000107
C    14.93000031  16.60000038  45.33000183
C     5.09999990  18.19000053  46.16000366
H     4.65069294  17.43133545  45.51918411
H     9.51000023  17.69000053  43.81000137
H    10.51000023  15.73999977  48.36000061
H     8.19999981  15.84000015  48.80000305
H     5.92000008  16.72999954  48.40999985
H     7.30999994  18.46999931  44.77000427
H    15.47999954  16.72999954  44.40000153
H     4.48999977  18.13999939  47.08000183
H     5.15999985  19.20999908  45.77999878
S    16.00000000  15.60999966  49.05000305
C    18.68999863  15.32999992  48.23999786
C    17.38999939  15.77000046  47.98999786
C    17.07999992  16.23999977  46.70000076
C    18.04999924  16.35000038  45.70999908
C    19.42000008  15.97000027  45.90000153
C    20.51000214  16.05999947  44.92000198
C    21.78999901  15.62000084  45.25000000
C    21.98999786  15.03999901  46.47999573
C    20.95999908  14.88999939  47.42000198
C    19.68000031  15.36000061  47.19999695
C    15.64000034  16.45000076  46.56000137
C    14.88999939  16.11999893  47.72999573
C    13.52000046  15.93999958  47.77000046
C    23.36000061  14.78000069  46.95999908
H    23.43208313  15.02508640  48.01963806
H    18.86000061  14.84000015  49.19000244
H    17.71999931  16.65999985  44.72999954
H    20.15999985  16.54999924  44.01000214
H    22.63999939  15.85999966  44.61999893
H    21.21000099  14.65999985  48.44999695
H    13.00000000  15.82999992  48.72000122
H    24.11999893  15.36000061  46.43000031
H    23.67000198  13.78999901  46.60999680
S    11.78999996  17.43000031  50.59000015
C     9.13000011  17.84000015  51.29000092
C    10.39000034  17.28999901  51.63000107
C    10.71000004  16.95000076  52.97999954
C     9.70000076  16.79000092  53.94000244
C     8.43999958  17.30999947  53.67000198
C     7.30000019  17.35000038  54.61000061
C     6.14000034  17.86999893  54.20000076
C     5.95000029  18.36000061  52.88999939
C     6.94999981  18.35000038  51.95999908
C     8.14000034  17.82999992  52.32999802
C    12.13000107  16.82999992  53.16999817
C    12.90999985  17.05999947  52.00000000
C    14.26000023  17.02999878  51.88000107
C     4.57999992  18.71999931  52.35000229
H     4.19952869  18.00837898  51.61724091
H     8.97000027  18.36000061  50.34999847
H     9.89000034  16.36999893  54.92000198
H     7.40999985  16.93000031  55.59999847
H     5.26000023  17.79000092  54.82999802
H     6.84999990  18.81999969  50.97999954
H    14.73000050  17.25000000  50.91999817
H     3.91999984  18.96999931  53.18999863
H     4.72000027  19.63999939  51.77999878
S    15.34999943  15.75000000  55.54000092
C    18.02000046  15.36999893  54.72000122
C    16.75000000  15.81999969  54.43999863
C    16.39000130  16.44000053  53.23999786
C    17.36999893  16.65999985  52.27000427
C    18.71999931  16.22999954  52.51999664
C    19.80999947  16.32999992  51.59000015
C    21.05999947  15.85999966  51.88000107
C    21.31999969  15.22999954  53.11000061
C    20.34000015  15.00000000  53.99000168
C    19.04999924  15.53999996  53.72000122
C    14.94999981  16.68000031  53.06000137
C    14.25000000  16.36000061  54.25000000
C    12.82999992  16.45000076  54.31999969
C    22.62000084  14.86999989  53.54000092
H    22.95656204  15.41522789  54.42179108
H    18.12999916  14.91000080  55.70000076
H    17.10000038  16.98999977  51.26999664
H    19.52999878  16.77999878  50.63999939
H    21.87999916  15.98999977  51.18000031
H    20.48999977  14.55000019  54.97000122
H    12.35999966  16.21999931  55.27999878
H    23.38999939  14.98000050  52.76000214
H    22.62000084  13.81999969  53.82999802
