96

S    12.17000008  16.77999878  44.52000046
C     9.51000023  17.28999901  45.27000046
C    10.77999973  16.93000031  45.59000015
C    11.10999966  16.51000023  46.91999817
C    10.18000031  16.70999908  47.85999680
C     8.82000065  17.11000061  47.56999969
C     7.90000010  17.23999977  48.59000397
C     6.61999989  17.70000076  48.27999878
C     6.23000050  17.92000008  46.90000153
C     7.16000032  17.71000099  45.93000031
C     8.52999973  17.38999939  46.22000122
C    12.50000000  16.31000137  47.04999924
C    13.19000053  16.42000008  45.84000015
C    14.53999996  16.31999969  45.73999786
C     4.81999969  18.34000015  46.51000214
H     4.39207315  17.56131363  45.87863541
H     9.35000038  17.63000107  44.25000000
H    10.47999954  16.43000031  48.86000061
H     8.23999977  16.92000008  49.56999969
H     5.92000008  17.87999916  49.09000015
H     6.84999990  18.06999969  44.95999908
H    15.01000023  16.40999985  44.77000427
H     4.09999990  18.55999947  47.29999924
H     5.09000015  19.29000092  46.02000427
S    15.76000023  15.62999916  49.47999954
C    18.40999985  15.19999981  48.66000366
C    17.12000084  15.48999977  48.36999893
C    16.70999908  15.85000038  46.97999954
C    17.65999985  15.93999958  46.00000000
C    19.04000092  15.57999992  46.25999832
C    20.00999832  15.50000000  45.28999710
C    21.30000114  15.14000034  45.61000061
C    21.70000076  14.82999992  46.93999863
C    20.76999855  14.78000069  47.91999817
C    19.42000008  15.14999962  47.63999939
C    15.25000000  15.95999908  46.84999847
C    14.60000038  15.93000031  48.16999817
C    13.22999954  16.21999931  48.27000046
C    23.18000031  14.40000057  47.23999786
H    23.41034317  14.72391987  48.25494385
H    18.63000107  14.82999992  49.66999817
H    17.43999863  16.18000031  44.95999908
H    19.76000023  15.95000076  44.33000183
H    22.06999969  15.15999985  44.84000397
H    20.96999931  14.52000046  48.95999908
H    12.74000072  16.27000046  49.23999786
H    23.85999870  14.70000076  46.44000244
H    23.23999786  13.30000019  47.22000122
S    16.36999893  12.90999985  52.34000397
C    19.04999924  12.53999901  51.43000031
C    17.72999954  12.51999950  51.18999863
C    17.22999954  12.20999908  49.91000366
C    18.01000023  11.82999992  48.76999664
C    19.42000008  11.84000015  49.02999878
C    20.32999992  11.23999977  48.13999939
C    21.61000061  10.82999992  48.54000092
C    22.20000076  11.32999992  49.79999924
C    21.28999901  11.94000053  50.65000153
C    19.89999962  12.15999985  50.37000275
C    15.76000023  12.35000038  49.79000092
C    15.14999962  12.69999981  51.04999924
C    13.81000042  13.10999966  51.16000366
C    23.51000023  10.77000046  50.33000183
H    23.77223587  11.04603863  51.35134125
H    19.40999985  12.82999992  52.42000198
H    17.63000107  11.43000031  47.83000183
H    19.86999893  10.80000019  47.25999832
H    22.10000038   9.92999935  48.15999985
H    21.57999992  12.15000057  51.66999817
H    13.40999985  13.45000076  52.11000061
H    23.59999847   9.70000076  50.07999802
H    24.31999969  11.13999939  49.68999863
S    12.23000050  12.38999939  47.61000061
C     9.65999985  13.00000000  48.39000320
C    11.00999928  12.98999977  48.69999695
C    11.51999950  13.35999966  49.98000336
C    10.73999977  13.93000031  50.96000290
C     9.40999985  14.06999969  50.65999985
C     8.51000023  14.73999977  51.52000046
C     7.21000004  14.84000015  51.25000000
C     6.56000042  14.22999954  50.13000107
C     7.40000010  13.50000000  49.27999878
C     8.82999992  13.45999908  49.43999863
C    12.97999954  13.09999943  50.02999878
C    13.55000019  12.68000031  48.79000092
C    14.89999962  12.42000008  48.68000031
C     5.17000008  14.65999985  49.86999893
H     4.78478861  14.14396191  48.99055862
H     9.25000000  12.50000000  47.51999664
H    11.11999989  14.30999947  51.90999985
H     8.82999992  15.24000072  52.43000031
H     6.53999996  15.44000053  51.86999893
H     6.96000004  13.27000046  48.30999756
H    15.25000000  12.20999908  47.68000031
H     5.26000023  15.75000000  49.72999954
H     4.55000019  14.53999996  50.77000046
