96

S    12.05000019  17.14999962  44.43000031
C     9.39000034  17.52000046  45.06000137
C    10.65000057  17.15999985  45.47000122
C    10.98000050  16.97000122  46.79999924
C    10.00000000  16.90000153  47.71999741
C     8.64000034  17.20000076  47.35000229
C     7.59999990  17.01000023  48.27999878
C     6.28999996  17.35000038  47.97000122
C     5.98000002  17.87999916  46.63999939
C     7.03000021  18.07999992  45.79000092
C     8.31999969  17.54999924  46.03000259
C    12.43999958  16.88999939  47.01000214
C    13.15999985  17.13000107  45.79999924
C    14.48999977  16.88999939  45.63999939
C     4.61000013  18.29000092  46.18000031
H     4.22831583  17.64460564  45.38887405
H     9.17000008  17.98999977  44.09999847
H    10.19999981  16.50000000  48.72000122
H     7.82000017  16.53000069  49.22999954
H     5.40000010  17.28000069  48.59000397
H     6.88000011  18.43000031  44.77000427
H    14.92000008  16.95000076  44.65000153
H     3.94000006  18.32999992  47.04999924
H     4.69999981  19.29999924  45.77000046
S    15.54999924  15.52999973  49.20999908
C    18.19000053  14.89999962  48.37999725
C    16.95999908  15.51000023  48.09000015
C    16.63999939  16.13999939  46.86000061
C    17.64000130  16.17000008  45.89000320
C    18.93000031  15.64000034  46.13999939
C    19.95000076  15.78999996  45.21999741
C    21.19999886  15.27999973  45.45000076
C    21.52000046  14.70000076  46.70999908
C    20.52999878  14.63999939  47.65999603
C    19.22999954  15.10000038  47.41000366
C    15.21999931  16.46999931  46.76000214
C    14.55999947  16.26000023  47.97999954
C    13.17999935  16.48999977  48.15000153
C    23.03999901  14.55000019  47.15999985
H    23.34900665  15.19610691  47.98168182
H    18.39999962  14.59000015  49.40000153
H    17.34000015  16.61000061  44.93999863
H    19.60000038  16.39000130  44.38000107
H    21.94000053  15.44999981  44.68000031
H    20.66999817  14.26000023  48.67000198
H    12.67000008  16.13000107  49.03999710
H    23.57999992  14.89999962  46.26999664
H    23.29000092  13.53000069  47.47000122
S    15.95000076  13.20000076  52.44999695
C    18.46999931  12.69000053  51.63000107
C    17.13999939  12.50000000  51.40999603
C    16.60000038  12.02000046  50.20000076
C    17.45000076  11.59999943  49.20000076
C    18.86999893  11.82000065  49.36000061
C    19.78999901  11.31999969  48.37999725
C    21.15999985  11.10000038  48.66000366
C    21.70999908  11.57999992  49.89999771
C    20.86999893  12.15999985  50.84999847
C    19.44000053  12.30999947  50.61999893
C    15.19000053  12.41000080  50.06999969
C    14.65000057  13.03999996  51.22000122
C    13.35999966  13.52000046  51.20999908
C    23.19999886  11.26999950  50.13999939
H    23.50102806  11.57102871  51.14342499
H    18.72999954  13.20000076  52.55000305
H    17.12000084  11.26000023  48.22000122
H    19.45999908  10.72000027  47.52999878
H    21.68999863  10.44000053  47.97999954
H    21.21000099  12.43999958  51.84000015
H    12.90999985  14.00000000  52.08000183
H    23.36000061  10.19999981  50.00000000
H    23.68999863  11.73999977  49.27999878
S    12.06999969  12.69000053  47.50000000
C     9.35000038  13.00000000  48.27000046
C    10.72000027  13.01000023  48.64999771
C    11.17000008  13.32999992  49.98000336
C    10.31999969  13.81000042  50.94999695
C     8.90999985  13.88000011  50.65999985
C     8.01999950  14.30999947  51.63000107
C     6.69000053  14.52000046  51.31999969
C     6.17999983  14.22000027  49.99000168
C     7.05999947  13.64999962  49.08000183
C     8.45000076  13.45000076  49.31999969
C    12.56000042  13.22000027  50.07999802
C    13.17999935  12.76999950  48.86000061
C    14.47000027  12.30000019  48.85000229
C     4.63999987  14.35999966  49.73999786
H     4.38140488  14.05112267  48.72716904
H     9.03999996  12.90999985  47.22999954
H    10.76000023  14.30999947  51.81000137
H     8.43999958  14.68999958  52.56000137
H     6.06999969  15.14000034  51.95999908
H     6.67000008  13.60000038  48.06999969
H    14.93000031  11.87000084  47.95999908
H     4.42000008  15.39999962  49.98000336
H     4.15000010  13.63000011  50.40000153
