96

S    12.35999966  17.12000084  43.97999573
C     9.72999954  17.59000015  44.65000153
C    10.95000076  17.01000023  45.00000000
C    11.28999901  16.54999924  46.35000229
C    10.15999985  16.47999954  47.22999954
C     8.85999966  17.00000000  46.86000061
C     7.78999996  17.02999878  47.81000137
C     6.51999998  17.50000000  47.50000000
C     6.30999994  17.93000031  46.20999908
C     7.36999989  18.05999947  45.35999680
C     8.60999966  17.56999969  45.54999924
C    12.71000004  16.55999947  46.63000107
C    13.42000008  16.76000023  45.38999939
C    14.80000019  16.81999969  45.35999680
C     4.90999985  18.27999878  45.86999893
H     4.46192789  17.54814911  45.19789124
H     9.68999958  18.26000023  43.80000305
H    10.31999969  16.18999863  48.27000046
H     7.92999983  16.57999992  48.79000092
H     5.72000027  17.38999939  48.22999954
H     7.25000000  18.63000107  44.43999863
H    15.39000034  16.98999977  44.45999908
H     4.30000019  18.37000084  46.77999878
H     4.85000038  19.27999878  45.41999817
S    15.84000015  15.80999947  49.10999680
C    18.50000000  15.19999981  48.23999786
C    17.31999969  15.84000015  48.02999878
C    16.90999985  16.45000076  46.77000046
C    17.86000061  16.36999893  45.72000122
C    19.17000008  15.82999992  45.97000122
C    20.20000076  15.82999992  44.98000336
C    21.48999977  15.48999977  45.31000137
C    21.77000046  14.85999966  46.56000137
C    20.79000092  14.80999947  47.51999664
C    19.47999954  15.29000092  47.28000259
C    15.51000023  16.68000031  46.56999969
C    14.85000038  16.40999985  47.78999710
C    13.43999958  16.32999992  47.81000137
C    23.15999985  14.55999947  46.90000153
H    23.49254227  15.01031590  47.83527374
H    18.65999985  14.60000038  49.13000107
H    17.61999893  16.77999878  44.73999786
H    19.96000099  16.40999985  44.09999847
H    22.27000046  15.67999935  44.58000183
H    20.95000076  14.34000015  48.48999786
H    13.00000000  16.00000000  48.75000000
H    23.85000038  14.72000027  46.06999969
H    23.15999985  13.47000027  47.06999969
S    16.00000000  13.00000000  52.22000122
C    18.53999901  12.42000008  51.37000275
C    17.23999977  12.51999950  51.03000259
C    16.77000046  12.23000050  49.72000122
C    17.61999893  11.73999977  48.73000336
C    19.05999947  11.76000023  49.00000000
C    20.00999832  11.32999992  48.02999878
C    21.31000137  11.21999931  48.39000320
C    21.73999977  11.46000004  49.71000290
C    20.86999893  11.92000008  50.61999893
C    19.51000023  12.10999966  50.31999969
C    15.34999943  12.55000019  49.71000290
C    14.81999969  12.93000031  50.94999695
C    13.50999928  13.26000023  51.04000092
C    23.25000000  11.43000031  50.00999832
H    23.46699333  11.63252831  51.05880356
H    18.78999901  12.58999920  52.41000366
H    17.22999954  11.46999931  47.75000000
H    19.67000008  10.80999947  47.14000320
H    21.97000122  10.84000015  47.62000275
H    21.21999931  12.15000057  51.63000107
H    13.07000065  13.68999958  51.93000031
H    23.75000000  10.52000046  49.65999985
H    23.59999847  12.30999947  49.45000076
S    11.92000008  12.41000080  47.57999802
C     9.39000034  12.90999985  48.46000290
C    10.71000004  12.89000034  48.75000000
C    11.26000023  13.30999947  49.98000336
C    10.42000008  13.89999962  50.86999893
C     9.03999996  14.01000023  50.63000107
C     8.10999966  14.42000008  51.60999680
C     6.75000000  14.50000000  51.43000031
C     6.28000021  14.11000061  50.13999939
C     7.11000013  13.55999947  49.20000076
C     8.51000023  13.50000000  49.40999985
C    12.65999985  13.07000065  49.99000168
C    13.19000053  12.72999954  48.74000168
C    14.53999996  12.43999958  48.56999969
C     4.98000002  14.42000008  49.69999695
H     4.79643440  14.02349854  48.70140457
H     9.06000042  12.84999943  47.43000031
H    10.80999947  14.07999992  51.86999893
H     8.47999954  14.73999977  52.57999802
H     6.11000013  15.06000042  52.11000061
H     6.61999989  13.27000046  48.27999878
H    14.96999931  12.02000046  47.65999603
H     4.90000010  15.51000023  49.72999954
H     4.21999979  14.11000061  50.43000031
