96

S    11.98999977  17.00000000  44.09999847
C     9.39999962  17.50000000  44.86000061
C    10.62000084  16.95000076  45.17000198
C    10.93999958  16.47999954  46.49000168
C     9.98999977  16.40999985  47.52999878
C     8.71999931  16.94000053  47.19999695
C     7.65999985  16.93000031  48.18999863
C     6.43000031  17.31999969  47.77999878
C     6.21000004  17.79999924  46.45000076
C     7.13999987  17.98999977  45.54000092
C     8.42000008  17.43000031  45.86999893
C    12.38000011  16.18000031  46.58000183
C    13.12000084  16.48999977  45.37000275
C    14.52999973  16.62999916  45.34000015
C     4.81999969  18.22999954  46.04000092
H     4.52326488  17.68719101  45.14255524
H     9.21000004  18.02999878  43.93000031
H    10.24000072  16.32999992  48.57999802
H     7.79999971  16.68000031  49.23999786
H     5.65000010  17.45000076  48.53000259
H     6.94000006  18.45999908  44.58000183
H    14.96999931  16.82999992  44.36999893
H     4.09999990  17.90999985  46.81000137
H     4.86000013  19.30999947  45.89000320
S    15.62999916  15.47999954  49.02000046
C    18.27000046  15.34999943  48.34000015
C    17.00000000  15.75000000  48.02000046
C    16.70999908  16.27000046  46.72000122
C    17.71000099  16.42000008  45.79000092
C    19.00000000  16.05999947  46.06999969
C    20.06000137  16.05999947  45.12000275
C    21.31999969  15.55999947  45.47999954
C    21.60000038  15.21000004  46.81999969
C    20.61000061  15.08999920  47.70999908
C    19.29000092  15.57999992  47.38999939
C    15.22999954  16.40999985  46.52000046
C    14.56999969  16.04999924  47.68000031
C    13.15999985  15.88999939  47.68000031
C    22.88999939  14.50000000  47.21000290
H    23.40306091  14.90212917  48.08359146
H    18.30999947  14.60999966  49.13999939
H    17.47999954  16.77999878  44.79000092
H    19.77000046  16.28000069  44.09999847
H    22.06999969  15.36999893  44.72000122
H    20.62000084  14.28999996  48.44999695
H    12.72999954  15.64000034  48.63999939
H    23.52000046  14.51000023  46.31000137
H    22.72999954  13.45000076  47.48000336
S    12.02999973  16.95999908  51.04999924
C     9.35999966  17.13999939  51.70000076
C    10.67000008  16.92000008  52.14000320
C    10.95000076  16.54999924  53.50999832
C     9.90999985  16.35000038  54.40999985
C     8.59000015  16.81999969  54.02000046
C     7.59999990  16.88999939  55.06000137
C     6.34999990  17.30999947  54.72999954
C     6.01000023  17.65999985  53.36999893
C     6.96000004  17.56999969  52.37999725
C     8.28999996  17.14999962  52.68000031
C    12.38000011  16.51000023  53.70999908
C    13.07999992  16.72000122  52.48000336
C    14.52000046  16.62999916  52.34000397
C     4.61999989  18.04999924  52.93000031
H     4.29673100  17.55104065  52.01641464
H     9.13999939  17.46000099  50.68000031
H    10.24000072  16.31999969  55.45000076
H     7.82999992  16.57999992  56.06999969
H     5.71000004  17.26000023  55.61000061
H     6.76000023  17.84000015  51.35000229
H    14.98999977  16.61999893  51.36000061
H     4.01999998  17.87999916  53.82999802
H     4.61999989  19.12999916  52.74000168
S    15.62000084  15.67999935  56.04999924
C    18.23999977  15.14999962  55.43000031
C    17.04000092  15.67000008  55.06999969
C    16.67000008  16.11999893  53.75999832
C    17.67000008  16.17000008  52.80000305
C    18.96999931  15.71000004  53.16999817
C    20.03999901  15.67999935  52.18999863
C    21.31000137  15.19000053  52.50000000
C    21.53000069  14.70000076  53.80000305
C    20.52999878  14.63000107  54.73999786
C    19.27000046  15.13000011  54.47000122
C    15.25000000  16.45000076  53.54000092
C    14.57999992  16.25000000  54.79999924
C    13.14000034  16.15999985  54.86000061
C    22.88000107  14.18000031  54.18000031
H    23.03951836  14.41928005  55.23138046
H    18.46999931  14.94999981  56.46999741
H    17.36999893  16.36999893  51.77999878
H    19.75000000  15.98999977  51.18999863
H    22.00000000  15.07999992  51.66999817
H    20.63999939  14.04000092  55.65000153
H    12.53999901  15.80000019  55.68999863
H    23.68000031  14.70000076  53.63999939
H    22.95000076  13.09000015  54.06999969
