96

S    12.15999985  17.05000114  44.20999908
C     9.51000023  17.25000000  44.84000397
C    10.76000023  16.87999916  45.20000076
C    11.09000015  16.61000061  46.56000137
C    10.14000034  16.60000038  47.52999878
C     8.82999992  16.97000122  47.22000122
C     7.92999983  17.13999939  48.25000000
C     6.67999983  17.59000015  47.95999908
C     6.32000017  18.09000015  46.66999817
C     7.26999998  18.00000000  45.65999985
C     8.48999977  17.42000008  45.87999725
C    12.60000038  16.52000046  46.79000092
C    13.27000046  16.60000038  45.56000137
C    14.63000107  16.48999977  45.52999878
C     4.86999989  18.45999908  46.38000107
H     4.42555904  17.84351730  45.59864044
H     9.32999992  17.70000076  43.87000275
H    10.43000031  16.45000076  48.55999756
H     8.28999996  17.09000015  49.27999878
H     6.02999973  17.76000023  48.81999969
H     7.05999947  18.34000015  44.65000153
H    15.19000053  16.82999992  44.65999985
H     4.17000008  18.57999992  47.22000122
H     4.88000011  19.47999954  46.00000000
S    15.76000023  15.88999939  49.29999924
C    18.47999954  15.46000004  48.53000259
C    17.22999954  15.84000015  48.15999985
C    16.88999939  16.22999954  46.83000183
C    17.87999916  16.18999863  45.90000153
C    19.22999954  15.80999947  46.20999908
C    20.29000092  15.88000107  45.26000214
C    21.54999924  15.44999981  45.61000061
C    21.83000183  15.13000011  46.91999817
C    20.86000061  15.15999985  47.88000107
C    19.55000114  15.53999996  47.61000061
C    15.39999962  16.31000137  46.69000244
C    14.68999958  16.20000076  47.93000031
C    13.27000046  16.22999954  47.97000122
C    23.19999886  14.55000019  47.36999893
H    23.44385338  15.05922127  48.30237579
H    18.78000069  15.03000069  49.47999954
H    17.61999893  16.28999901  44.85000229
H    20.10000038  16.35000038  44.29999924
H    22.34999847  15.38000011  44.86999893
H    21.04999924  14.82999992  48.89999771
H    12.71000004  16.02000046  48.88000107
H    23.95999908  14.68999958  46.59999847
H    23.22999954  13.45999908  47.50999832
S    16.36000061  13.48000050  52.29000092
C    18.92000008  12.51999950  51.70999908
C    17.56999969  12.60000038  51.38000107
C    16.98999977  12.18000031  50.08999634
C    17.89999962  11.77000046  49.09000015
C    19.27999878  11.78999996  49.34999847
C    20.20000076  11.47999954  48.34000015
C    21.57999992  11.23999977  48.55999756
C    22.03000069  11.47999954  49.89999771
C    21.15999985  11.92000008  50.84999847
C    19.76000023  11.97999954  50.70000076
C    15.57000065  12.46999931  50.00000000
C    15.05000019  13.22000027  51.11000061
C    13.68000031  13.63000011  51.11999893
C    23.44000053  10.98000050  50.28999710
H    23.72170639  11.37728119  51.26514435
H    19.27000046  12.96000004  52.63999939
H    17.50000000  11.35000038  48.16999817
H    19.78999901  11.19999981  47.37999725
H    22.13999939  10.69000053  47.81000137
H    21.56999969  12.13000107  51.83000183
H    13.19000053  14.00000000  52.02000046
H    23.46999931   9.89000034  50.35999680
H    24.17000008  11.25000000  49.51000214
S    12.17000008  12.35999966  47.65999603
C     9.59000015  12.96000004  48.40000153
C    10.92000008  12.96000004  48.70999908
C    11.39000034  13.48999977  49.99000168
C    10.52000046  14.06000042  50.86000061
C     9.15999985  14.11999893  50.58000183
C     8.25000000  14.73999977  51.44000244
C     6.89000034  14.65000057  51.13999939
C     6.44999981  13.96999931  50.01999664
C     7.27999973  13.45000076  49.06999969
C     8.69000053  13.56999969  49.36000061
C    12.84999943  13.30999947  50.02999878
C    13.40999985  12.63000011  48.93000031
C    14.77000046  12.32999992  48.86000061
C     4.94000006  14.04000092  49.75000000
H     4.62442923  13.79989147  48.73468781
H     9.15999985  12.34000015  47.62000275
H    10.95999908  14.47000027  51.77000046
H     8.60999966  15.01999950  52.43000031
H     6.10000038  15.00000000  51.77999878
H     6.91999960  12.92000008  48.18999863
H    15.21999931  11.90000057  47.97000122
H     4.55999994  15.05000019  49.98000336
H     4.38000011  13.50000000  50.52000046
