96

S    12.34000015  17.40999985  44.13000107
C     9.67000008  17.77000046  44.92000198
C    10.90999985  17.43000031  45.20999908
C    11.26000023  17.04000092  46.53999710
C    10.24000072  16.80999947  47.47000122
C     8.89999962  17.05000114  47.05999756
C     7.88000011  16.87999916  48.04999924
C     6.61999989  17.53999901  47.77000046
C     6.28000021  18.04000092  46.45000076
C     7.23999977  18.07999992  45.54999924
C     8.57999992  17.64999962  45.86000061
C    12.69999981  16.84000015  46.70000076
C    13.43999958  17.11000061  45.51000214
C    14.78999996  17.02999878  45.47999954
C     4.86000013  18.44000053  46.11999893
H     4.49127150  17.77484322  45.33916473
H     9.40999985  18.09999847  43.92000198
H    10.38000011  16.54000092  48.52000427
H     8.17000008  16.48999977  49.02000046
H     5.97000027  17.61000061  48.63999939
H     7.02000046  18.43000031  44.54000092
H    15.34999943  17.05000114  44.54999924
H     4.26000023  18.30999947  47.02999878
H     4.81999969  19.51000023  45.87999725
S    15.81999969  15.76000023  49.00000000
C    18.45999908  15.52999973  48.39000320
C    17.18000031  15.97000027  48.04000092
C    16.92000008  16.54000092  46.77000046
C    17.86999893  16.67000008  45.84000015
C    19.19999886  16.20000076  46.11999893
C    20.20000076  16.13000107  45.06999969
C    21.45999908  15.65999985  45.34999847
C    21.77999878  15.26999950  46.73999786
C    20.79000092  15.15999985  47.68000031
C    19.50000000  15.64000034  47.41000366
C    15.47999954  16.70999908  46.63999939
C    14.78999996  16.32999992  47.77999878
C    13.38999939  16.25000000  47.75000000
C    23.19000053  15.00000000  47.14000320
H    23.50235558  15.63958549  47.96551132
H    18.60000038  15.06000042  49.36000061
H    17.56999969  17.05999947  44.86999893
H    19.93000031  16.55999947  44.10999680
H    22.27999878  15.62999916  44.64000320
H    21.07000160  14.80000019  48.67000198
H    12.88000011  15.72999954  48.54999924
H    23.87000084  15.19999981  46.30000305
H    23.26000023  13.96999931  47.49000168
S    16.15999985  13.00000000  52.42000198
C    18.81999969  12.79999924  51.63000107
C    17.53000069  12.79000092  51.30000305
C    17.10000038  12.43000031  50.00999832
C    18.00000000  12.10000038  49.06000137
C    19.36000061  12.18999958  49.31999969
C    20.36000061  11.76000023  48.43000031
C    21.77000046  11.59999943  48.77999878
C    22.13999939  12.02999973  50.00000000
C    21.14000130  12.38999939  50.91999817
C    19.80999947  12.51999950  50.66999817
C    15.67000008  12.61000061  49.80999756
C    15.03999901  12.88000011  51.03000259
C    13.68000031  13.23999977  51.04999924
C    23.54000092  11.72999954  50.44000244
H    23.72732162  12.03259659  51.47026825
H    19.13999939  13.12999916  52.61000061
H    17.77000046  11.59000015  48.13999939
H    20.12000084  11.44999981  47.41000366
H    22.46000099  11.09000015  48.11000061
H    21.35000038  12.55000019  51.97999954
H    13.22999954  13.52000046  52.00000000
H    23.61000061  10.62999916  50.43000031
H    24.18999863  12.28999996  49.75000000
S    12.51000023  12.61999989  47.36000061
C     9.85999966  13.15000057  47.95999908
C    11.13999939  13.07000065  48.34999847
C    11.47999954  13.40000057  49.71000290
C    10.55999947  13.73999977  50.65000153
C     9.19999981  13.85000038  50.26000214
C     8.13000011  14.09000015  51.22000122
C     6.84000015  14.19999981  50.77999878
C     6.44000006  13.89000034  49.47999954
C     7.42999983  13.71999931  48.54000092
C     8.80000019  13.52000046  48.90999603
C    12.93000031  13.22999954  49.87999725
C    13.55999947  12.79000092  48.68000031
C    14.92000008  12.46999931  48.61000061
C     4.96000004  13.97999954  49.20000076
H     4.69726849  13.53264618  48.24138260
H     9.67000008  12.76000023  46.95999908
H    10.80999947  13.89999962  51.69000244
H     8.46000004  14.32000065  52.22999954
H     6.15000010  14.63999939  51.50000000
H     7.09999990  13.63000011  47.50000000
H    15.53999996  12.51000023  47.71999741
H     4.59999990  15.01999950  49.16999817
H     4.38000011  13.45999908  49.95999908
