96

S    12.61999989  16.56999969  44.31000137
C     9.94000053  16.88999939  44.93000031
C    11.23999977  16.45000076  45.33000183
C    11.46999931  16.03999901  46.63000107
C    10.44000053  15.90999985  47.51999664
C     9.18000031  16.43000031  47.21000290
C     8.07999992  16.52000046  48.15999985
C     6.80999994  16.87999916  47.76000214
C     6.58999968  17.43000031  46.44000244
C     7.62000036  17.38999939  45.52999878
C     8.93000031  16.92000008  45.90000153
C    12.86000061  15.93999958  46.79999924
C    13.57999992  16.15999985  45.70999908
C    14.92000008  16.23999977  45.59000015
C     5.19999981  17.86000061  46.04999924
H     4.74786806  17.30511284  45.22794342
H     9.80000019  17.34000015  43.95999908
H    10.59000015  15.60999966  48.54999924
H     8.27999973  16.10000038  49.15000153
H     5.98999977  16.92000008  48.47000122
H     7.42999983  17.69000053  44.51000214
H    15.29000092  16.72000122  44.68999863
H     4.53999996  17.88999939  46.93000031
H     5.19999981  18.93000031  45.79000092
S    16.17000008  15.26999950  49.20999908
C    18.85000038  15.15999985  48.41999817
C    17.51000023  15.55999947  48.15000153
C    17.12000084  16.06999969  46.90000153
C    18.12000084  16.26000023  45.93000031
C    19.51000023  16.03000069  46.17000198
C    20.55000114  16.09000015  45.13000107
C    21.80999947  15.67999935  45.40999985
C    22.07999992  15.01000023  46.65999985
C    21.14000130  14.81999969  47.61000061
C    19.88999939  15.43000031  47.45999908
C    15.71000004  15.93000031  46.72000122
C    15.05000019  15.51000023  47.85999680
C    13.63999939  15.55999947  47.95000076
C    23.48999977  14.52999973  46.97999954
H    23.80626488  15.04752731  47.88566971
H    19.14999962  14.42000008  49.15000153
H    17.79000092  16.31999969  44.88999939
H    20.27000046  16.36999893  44.12000275
H    22.56000137  16.01000023  44.68999863
H    21.28999901  14.17000008  48.47000122
H    13.12999916  15.29000092  48.87000275
H    24.11000061  14.80999947  46.11000061
H    23.40999985  13.47000027  47.23999786
S    11.87999916  16.94000053  50.68999863
C     9.21000004  17.50000000  51.44000244
C    10.42000008  16.94000053  51.70999908
C    10.72999954  16.32999992  52.95000076
C     9.72000027  16.23999977  53.88999939
C     8.47000027  16.76000023  53.66000366
C     7.36999989  16.54000092  54.56999969
C     6.09000015  16.84999847  54.19000244
C     5.82999992  17.50000000  52.94000244
C     6.84999990  17.86999893  52.09000015
C     8.22000027  17.43999863  52.41000366
C    12.17000008  16.13999939  53.16999817
C    12.86999893  16.43000031  52.01000214
C    14.28999996  16.36000061  52.08000183
C     4.41000032  17.94000053  52.56000137
H     4.16171789  17.62787437  51.54558945
H     8.98999977  17.94999886  50.47000122
H     9.89000034  15.69000053  54.80999756
H     7.53000021  15.88999939  55.43000031
H     5.35000038  16.79999924  54.99000168
H     6.76999998  18.42000008  51.14999771
H    14.91000080  16.46000099  51.18999863
H     3.65999985  17.50000000  53.22999954
H     4.48000002  19.04000092  52.55000305
S    15.21000004  15.65999985  55.81999969
C    17.94999886  15.19999981  55.20999908
C    16.67000008  15.51000023  54.79999924
C    16.34000015  15.88000107  53.40999985
C    17.43000031  16.02000046  52.55000305
C    18.68000031  15.60999966  52.88999939
C    19.69000053  15.62999916  51.90000153
C    20.95000076  15.17000008  52.18000031
C    21.28999901  14.86999989  53.48999786
C    20.36000061  15.00000000  54.47000122
C    19.00000000  15.24000072  54.22999954
C    14.93000031  16.02000046  53.20999908
C    14.15999985  15.97000027  54.43000031
C    12.81000042  16.02000046  54.40999985
C    22.70999908  14.65000057  53.89999771
H    22.84622002  15.17337418  54.84637070
H    18.19000053  15.03000069  56.25000000
H    17.29999924  16.39999962  51.52999878
H    19.37000084  15.85000038  50.89000320
H    21.63999939  14.98000050  51.36000061
H    20.58000183  14.77000046  55.51000214
H    12.22000027  16.04999924  55.33000183
H    23.38999939  15.01000023  53.11999893
H    22.95000076  13.60999966  54.19000244
