96

S    12.32999992  16.97999954  43.99000168
C     9.71000004  17.46000099  44.86000061
C    10.98999977  17.06999969  45.15999603
C    11.39999962  16.68000031  46.52999878
C    10.44000053  16.61000061  47.50999832
C     9.10000038  16.87999916  47.16999817
C     8.07999992  16.80999947  48.13000107
C     6.80000019  17.17000008  47.81999969
C     6.48999977  17.73999977  46.59000015
C     7.42000008  17.87999916  45.61000061
C     8.75000000  17.35000038  45.84999847
C    12.79999924  16.45000076  46.59000015
C    13.48000050  16.56999969  45.31000137
C    14.92000008  16.54999924  45.20000076
C     5.05999994  18.09999847  46.17000198
H     4.53212214  17.35811615  45.57078934
H     9.40999985  17.73999977  43.85000229
H    10.60999966  16.35000038  48.54999924
H     8.32999992  16.15999985  48.95999908
H     6.01999998  16.93000031  48.54000092
H     7.27999973  18.37000084  44.65000153
H    15.36999893  16.72000122  44.22999954
H     4.50000000  18.46999931  47.04000092
H     5.33999968  19.02000046  45.63999939
S    16.10000038  15.93999958  48.83999634
C    18.88000107  15.80999947  48.27000046
C    17.56000137  16.04999924  47.81999969
C    17.20000076  16.31999969  46.50000000
C    18.19000053  16.15999985  45.59000015
C    19.56999969  15.95999908  45.94999695
C    20.56999969  15.67000008  45.00999832
C    21.80999947  15.25000000  45.31000137
C    22.11999893  15.06999969  46.65999985
C    21.21999931  15.34000015  47.65999603
C    19.88999939  15.81999969  47.30999756
C    15.72000027  16.39000130  46.33999634
C    15.00000000  16.17000008  47.55000305
C    13.63999939  16.14999962  47.65999603
C    23.54000092  14.65000057  47.04999924
H    23.83769608  15.13375568  47.98030090
H    18.98999977  15.25000000  49.20000076
H    17.97999954  16.04999924  44.52999878
H    20.22999954  15.40999985  44.01000214
H    22.34000015  14.78999996  44.47999954
H    21.45999908  15.13000011  48.69999695
H    13.20000076  16.03999901  48.63999939
H    24.23999977  14.78000069  46.22000122
H    23.54000092  13.57999992  47.32999802
S    16.54999924  13.22999954  51.88000107
C    19.11999893  12.51999950  51.16000366
C    17.78000069  12.69000053  50.75000000
C    17.27000046  12.35999966  49.45000076
C    18.05999947  11.80999947  48.47999954
C    19.47000122  11.64999962  48.81000137
C    20.50000000  11.18000031  47.84000015
C    21.83000183  11.06999969  48.29000092
C    22.30999947  11.36000061  49.59999847
C    21.35000038  11.89000034  50.44000244
C    19.97999954  12.05000019  50.13999939
C    15.80999947  12.58999920  49.40000153
C    15.36000061  13.14000034  50.61000061
C    14.01000023  13.40999985  50.73999786
C    23.74000168  11.31000042  50.04000092
H    24.00662231  11.68186760  51.02930832
H    19.54000092  12.60000038  52.15999985
H    17.67000008  11.38000011  47.56000137
H    20.19000053  11.00999928  46.81000137
H    22.57999802  10.65000057  47.63999939
H    21.63999939  12.44999981  51.31999969
H    13.66000080  13.66000080  51.73999786
H    24.11000061  10.27999973  50.07999802
H    24.36000061  11.85999966  49.33000183
S    12.32999992  12.02999973  47.39999771
C     9.73999977  12.61000061  48.22000122
C    11.13999939  12.72999954  48.41999817
C    11.64000034  13.35000038  49.65000153
C    10.77999973  13.73999977  50.65000153
C     9.40999985  13.73999977  50.33000183
C     8.46000004  14.26000023  51.25999832
C     7.11999989  14.40999985  51.04000092
C     6.57000017  13.76000023  49.87999725
C     7.39000034  13.03999996  49.02999878
C     8.84000015  13.04999924  49.20999908
C    13.12999916  13.23999977  49.72000122
C    13.57999992  12.60000038  48.55999756
C    14.89999962  12.28000069  48.40000153
C     5.07000017  13.76999950  49.61000061
H     4.84850740  13.50420856  48.57636642
H     9.30000019  12.15999985  47.34000397
H    11.17000008  14.11999893  51.59000015
H     8.82999992  14.48999977  52.25000000
H     6.53999996  15.08999920  51.66999817
H     6.90999985  12.56999969  48.16999817
H    15.36999893  11.92999935  47.48000336
H     4.84000015  14.81999969  49.81999969
H     4.51000023  13.21000004  50.37000275
