96

S    12.60000038  17.13999939  44.48999786
C     9.88000011  17.17000008  45.02999878
C    11.14999962  16.86000061  45.44000244
C    11.43000031  16.39999962  46.81000137
C    10.31000042  16.36999893  47.71999741
C     9.02999973  16.87999916  47.43999863
C     7.92000008  16.97999954  48.33000183
C     6.76999998  17.38999939  47.81999969
C     6.57999992  17.82999992  46.49000168
C     7.59000015  17.77000046  45.59999847
C     8.89000034  17.29999924  46.02000427
C    12.86999893  16.21000099  46.97999954
C    13.59000015  16.72000122  45.84999847
C    14.96000099  16.79000092  45.89000320
C     5.19999981  18.31999969  45.98999786
H     4.87215996  17.78088570  45.10119247
H     9.67000008  17.54999924  44.03999710
H    10.47999954  15.95999908  48.70999908
H     8.05000019  16.51000023  49.29999924
H     5.86999989  17.48999977  48.41999817
H     7.50999975  17.86999893  44.52000046
H    15.50000000  17.05000114  44.98000336
H     4.44000006  18.43000031  46.77000046
H     5.38000011  19.34000015  45.63999939
S    16.04999924  15.57000065  49.38999939
C    18.59000015  14.96999931  48.57999802
C    17.32999992  15.34999943  48.20999908
C    17.06999969  15.90000057  46.95999908
C    18.07999992  15.98000050  46.02000427
C    19.36000061  15.67999935  46.32999802
C    20.38000107  15.80000019  45.35999680
C    21.68999863  15.47999954  45.66999817
C    21.97000122  14.96000099  47.01000214
C    20.97999954  14.93999958  48.01000214
C    19.62000084  15.18000031  47.64999771
C    15.67999935  16.28999901  46.95999908
C    15.01000023  16.05999947  48.15000153
C    13.61999989  15.93999958  48.15999985
C    23.38000107  14.42999935  47.32999802
H    23.86461067  15.05714321  48.07829285
H    18.79999924  14.45000076  49.51000214
H    17.94999886  16.44000053  45.04000092
H    19.98999977  16.07999992  44.38999939
H    22.39999962  15.32999992  44.86000061
H    21.18999863  14.65000057  49.02999878
H    13.17000008  15.62999916  49.09999847
H    23.85000038  14.32999992  46.35000229
H    23.25000000  13.42000008  47.75000000
S    11.98999977  16.92000008  51.12999725
C     9.25000000  17.09000015  51.95999908
C    10.55999947  16.81999969  52.23999786
C    10.82999992  16.36999893  53.53000259
C     9.85999966  16.18999863  54.51000214
C     8.52999973  16.56999969  54.33000183
C     7.46999979  16.59000015  55.20000076
C     6.23000050  17.09000015  54.87999725
C     5.93999958  17.50000000  53.54000092
C     6.94000006  17.61000061  52.61000061
C     8.22000027  17.10000038  52.97999954
C    12.25000000  16.29999924  53.68999863
C    12.97999954  16.54999924  52.52999878
C    14.34999943  16.53000069  52.38999939
C     4.50000000  17.92000008  53.13999939
H     4.16026878  17.51379967  52.18727493
H     9.00000000  17.48999977  50.97999954
H    10.21000004  15.88999939  55.48999786
H     7.65999985  16.38000107  56.25000000
H     5.47999954  17.27000046  55.63999939
H     6.84000015  17.93000031  51.58000183
H    14.91000080  16.61000061  51.45999908
H     3.71000004  17.67000008  53.86000061
H     4.56999969  19.01000023  53.06000137
S    15.55999947  15.85000038  56.14999771
C    18.25000000  15.26000023  55.34000015
C    16.92000008  15.72999954  55.06000137
C    16.55999947  16.14999962  53.73000336
C    17.53000069  16.13000107  52.77000046
C    18.86999893  15.76000023  53.06999969
C    19.80999947  15.70000076  51.97999954
C    21.09000015  15.29000092  52.22000122
C    21.52000046  14.88000011  53.50999832
C    20.56999969  14.77000046  54.45000076
C    19.27999878  15.36000061  54.31000137
C    15.11999989  16.31999969  53.53000259
C    14.42999935  16.03999901  54.73999786
C    13.01000023  16.04999924  54.84000397
C    22.98000145  14.57999992  53.73000336
H    23.22522354  14.83923531  54.75993729
H    18.47999954  14.73000050  56.25000000
H    17.36999893  16.11999893  51.70000076
H    19.52999878  15.82999992  50.93999863
H    21.80000114  15.22999954  51.40999603
H    20.76000023  14.18000031  55.34000015
H    12.51999950  15.76000023  55.76000214
H    23.68000031  15.08999920  53.06999969
H    23.09999847  13.48999977  53.61999893
