96

S    12.55000019  17.40999985  44.10999680
C     9.94000053  17.61000061  44.93000031
C    11.17000008  17.23999977  45.20999908
C    11.51000023  16.73999977  46.52000046
C    10.51000023  16.43000031  47.44999695
C     9.15000057  16.79999924  47.21000290
C     8.07999992  16.59000015  48.13999939
C     6.88000011  17.10000038  47.87000275
C     6.57999992  17.71000099  46.62000275
C     7.53999996  17.82999992  45.72000122
C     8.89000034  17.38999939  45.90999985
C    12.90999985  16.64999962  46.68000031
C    13.60000038  16.90000153  45.52000046
C    14.96000099  16.69999886  45.40999985
C     5.21000004  18.11000061  46.25999832
H     4.76279736  17.39305687  45.57144928
H     9.61999989  18.19000053  44.06000137
H    10.80999947  16.03999901  48.41999817
H     8.22000027  16.13000107  49.12000275
H     6.09000015  17.01000023  48.61000061
H     7.34000015  18.40999985  44.81999969
H    15.32999992  16.64999962  44.38999939
H     4.48999977  18.27000046  47.08000183
H     5.26000023  19.06999969  45.73999786
S    15.93999958  15.48999977  49.06999969
C    18.56999969  15.10000038  48.39000320
C    17.36999893  15.64000034  47.98999786
C    17.14999962  16.20000076  46.75000000
C    18.13999939  16.26000023  45.77000046
C    19.45999908  15.86999989  46.20999908
C    20.55999947  15.88999939  45.31999969
C    21.73000145  15.29000092  45.65000153
C    21.91999817  14.75999928  46.97999954
C    20.93000031  14.73999977  47.84000015
C    19.64999962  15.26000023  47.52999878
C    15.73999977  16.44000053  46.55000305
C    14.93000031  15.95999908  47.67000198
C    13.56999969  16.21999931  47.85999680
C    23.28000069  14.22999954  47.39999771
H    23.61597824  14.80187988  48.26496506
H    18.60999870  14.67000008  49.38000107
H    17.95999908  16.42000008  44.71000290
H    20.43000031  16.36999893  44.34999847
H    22.46999931  15.07999992  44.87999725
H    21.04000092  14.14000034  48.74000168
H    13.02999973  15.98999977  48.77999878
H    24.03000069  14.27999973  46.59999847
H    23.09999847  13.15999985  47.56999969
S    11.80999947  17.31999969  50.94999695
C     9.11999989  17.56000137  51.59999847
C    10.36999893  17.20000076  52.01000214
C    10.64000034  16.61999893  53.26000214
C     9.64999962  16.61000061  54.26000214
C     8.34999943  17.10000038  53.90999603
C     7.23000002  17.17000008  54.87999725
C     5.96000004  17.60000038  54.52000046
C     5.79999971  18.06999969  53.16999817
C     6.77999973  18.01000023  52.23999786
C     8.10000038  17.50000000  52.55000305
C    12.05000019  16.20000076  53.37999725
C    12.72999954  16.50000000  52.21000290
C    14.14000034  16.44000053  52.14000320
C     4.42000008  18.53999901  52.75000000
H     4.11602116  18.09463501  51.80271530
H     9.02999973  18.02999878  50.63000107
H     9.81000042  16.18999863  55.25000000
H     7.37999964  16.54000092  55.76000214
H     5.05000019  17.40999985  55.06999969
H     6.65999985  18.44000053  51.25000000
H    14.73000050  16.72999954  51.27999878
H     3.68000007  18.34000015  53.53000259
H     4.46999979  19.63000107  52.63999939
S    15.25000000  15.31999969  55.83000183
C    17.97999954  15.19999981  55.15999603
C    16.61999893  15.52999973  54.79000092
C    16.26000023  16.03000069  53.50000000
C    17.32999992  16.17000008  52.63999939
C    18.68000031  15.81999969  52.91999817
C    19.63999939  15.77999973  51.88000107
C    20.90999985  15.39000034  52.14000320
C    21.31999969  15.11999989  53.43999863
C    20.39999962  14.94999981  54.43000031
C    19.03000069  15.36000061  54.18000031
C    14.82999992  16.11999893  53.27999878
C    14.14999962  15.70000076  54.47000122
C    12.71000004  15.71000004  54.48999786
C    22.75000000  14.84000015  53.77999878
H    22.94244385  15.17499447  54.79923630
H    18.18000031  14.78999996  56.13999939
H    17.20000076  16.36000061  51.56999969
H    19.37000084  16.04999924  50.86000061
H    21.57999992  15.38000011  51.27999878
H    20.68000031  14.68000031  55.45000076
H    12.20000076  15.67999935  55.45000076
H    23.36999893  15.44999981  53.11000061
H    22.96999931  13.76999950  53.75000000
