96

S    12.30999947  16.45000076  43.90999603
C     9.67000008  16.98999977  44.73999786
C    10.90999985  16.50000000  44.98000336
C    11.28000069  16.22999954  46.33999634
C    10.27999973  16.18999863  47.32999802
C     8.93000031  16.55999947  47.01000214
C     7.94000053  16.59000015  47.98999786
C     6.67999983  17.00000000  47.63999939
C     6.42000008  17.48999977  46.36000061
C     7.37999964  17.57999992  45.43000031
C     8.63000011  17.07999992  45.68999863
C    12.71999931  16.04999924  46.49000168
C    13.43999958  16.20000076  45.28999710
C    14.84000015  16.07999992  45.19000244
C     5.10999966  18.02999878  46.00000000
H     4.71010876  17.54592133  45.10901260
H     9.52999973  17.50000000  43.79000092
H    10.52999973  15.70000076  48.27000046
H     8.02999973  16.18999863  48.99000168
H     5.91000032  16.93000031  48.40999985
H     7.20000029  18.02000046  44.43999863
H    15.24000072  16.28000069  44.20000076
H     4.42999983  17.90999985  46.86000061
H     5.12000036  19.12999916  45.93000031
S    15.90000057  15.44000053  48.95999908
C    18.68999863  15.29000092  48.29999924
C    17.35999870  15.52999973  47.95000076
C    16.97000122  15.77000046  46.52999878
C    17.95999908  15.75000000  45.58000183
C    19.27999878  15.51000023  45.90000153
C    20.22999954  15.42000008  44.88999939
C    21.51000023  15.06999969  45.19000244
C    21.97999954  14.84000015  46.53999710
C    21.04000092  14.94999981  47.56999969
C    19.71999931  15.34999943  47.28000259
C    15.53999996  15.88999939  46.37000275
C    14.82999992  15.67999935  47.56999969
C    13.45999908  15.75000000  47.63000107
C    23.45000076  14.55000019  46.90999985
H    23.57731438  14.57829189  47.99216843
H    18.96999931  15.01000023  49.31000137
H    17.60000038  15.70000076  44.55999756
H    19.80999947  15.60999966  43.89999771
H    22.29999924  15.06000042  44.43999863
H    21.28000069  14.70000076  48.60000229
H    12.93000031  15.72000027  48.56999969
H    24.13999939  15.29999924  46.50000000
H    23.71000099  13.53000069  46.59999847
S    11.78999996  16.73999977  51.04999924
C     9.13999939  17.13999939  51.81999969
C    10.38000011  16.73999977  52.19999695
C    10.72000027  16.46999931  53.56999969
C     9.77000046  16.38000107  54.48999786
C     8.43999958  16.76000023  54.18000031
C     7.39000034  16.72000122  55.08999634
C     6.11000013  17.14999962  54.86999893
C     5.88000011  17.70000076  53.60000229
C     6.84999990  17.65999985  52.54000092
C     8.17000008  17.13999939  52.80000305
C    12.13999939  16.46000099  53.68999863
C    12.81999969  16.48999977  52.44999695
C    14.14000034  16.22999954  52.29000092
C     4.50000000  18.15000153  53.20000076
H     4.06658077  17.42526817  52.51079178
H     8.96000004  17.53999901  50.81999969
H     9.89999962  16.09000015  55.52999878
H     7.73999977  16.40999985  56.06999969
H     5.36999989  17.11000061  55.65999985
H     6.67000008  18.02000046  51.52999878
H    14.56999969  16.31000137  51.29000092
H     3.89999986  18.12999916  54.12000275
H     4.53000021  19.14999962  52.75000000
S    15.36999893  15.52999973  56.03000259
C    18.02999878  15.07999992  55.12000275
C    16.77999878  15.38000011  54.84000397
C    16.34000015  15.82999992  53.54000092
C    17.34000015  16.07999992  52.63999939
C    18.68999863  15.72999954  52.87000275
C    19.71999931  15.90000057  51.90999985
C    21.01000023  15.59000015  52.15999985
C    21.35999870  14.98000050  53.43999863
C    20.38000107  14.75999928  54.38000107
C    19.03000069  15.18000031  54.09999847
C    14.93000031  16.03999901  53.43999863
C    14.27999973  16.10999870  54.72999954
C    12.86999893  16.23999977  54.81999969
C    22.79999924  14.61999989  53.67000198
H    23.11421013  15.19727039  54.53955841
H    18.30999947  14.84000015  56.14999771
H    17.07999992  16.54999924  51.69000244
H    19.34000015  16.32999992  50.97999954
H    21.73999977  15.73999977  51.37000275
H    20.59000015  14.26000023  55.31999969
H    12.38000011  15.97000027  55.75000000
H    23.40999985  14.88000011  52.78999710
H    23.09000015  13.60000038  53.95000076
