96

S    12.31999969  17.09000015  43.97999573
C     9.65999985  17.42000008  44.68000031
C    10.92000008  16.95000076  45.05000305
C    11.23999977  16.55999947  46.39999771
C    10.26000023  16.67000008  47.36999893
C     8.96000004  17.05000114  47.02999878
C     7.94000053  17.11000061  47.98999786
C     6.70000029  17.51000023  47.65999603
C     6.35999966  17.85000038  46.35000229
C     7.28999996  17.75000000  45.38000107
C     8.64999962  17.38999939  45.63999939
C    12.64000034  16.32999992  46.49000168
C    13.38000107  16.64999962  45.31999969
C    14.80000019  16.46999931  45.27000046
C     4.99000025  18.30000114  46.04999924
H     4.60837030  17.91837120  45.10299683
H     9.47000027  17.57999992  43.61999893
H    10.39999962  16.35000038  48.40000153
H     8.11999989  16.72999954  48.99000168
H     5.88000011  17.56999969  48.36999893
H     7.11000013  18.12999916  44.36999893
H    15.29999924  16.63999939  44.33000183
H     4.32000017  17.98999977  46.86000061
H     5.05999994  19.38999939  45.97999954
S    15.72999954  15.60999966  49.13000107
C    18.39999962  15.29000092  48.56999969
C    17.14999962  15.62999916  48.13000107
C    16.90000153  15.95999908  46.76000214
C    17.86999893  16.01000023  45.81999969
C    19.17000008  15.72000027  46.23000336
C    20.28000069  15.59999943  45.33000183
C    21.55999947  15.07999992  45.68000031
C    21.81999969  14.78000069  47.05999756
C    20.81999969  14.86999989  47.98999786
C    19.45999908  15.19999981  47.60000229
C    15.46000004  16.10999870  46.51000214
C    14.70000076  15.93999958  47.70999908
C    13.31999969  16.09000015  47.70000076
C    23.18000031  14.26000023  47.43000031
H    23.82253265  14.89583874  48.03906631
H    18.53000069  14.93000031  49.59000015
H    17.61000061  16.01000023  44.75999832
H    20.07999802  15.81999969  44.27999878
H    22.32999992  14.85999966  44.93999863
H    20.96999931  14.65000057  49.03999710
H    12.76000023  16.06999969  48.62999725
H    23.71000099  13.99000072  46.51000214
H    22.90999985  13.40999985  48.06000137
S    11.79999924  17.07999992  51.11000061
C     9.09000015  17.38999939  51.73999786
C    10.31999969  16.79999924  52.05999756
C    10.57999992  16.20000076  53.33000183
C     9.52000046  16.13999939  54.23999786
C     8.27000046  16.62999916  53.86000061
C     7.20000029  16.53000069  54.75000000
C     5.96000004  17.05000114  54.52999878
C     5.71000004  17.72999954  53.27999878
C     6.69000053  17.77000046  52.34000397
C     7.99000025  17.23999977  52.60000229
C    12.05999947  16.01000023  53.53000259
C    12.72999954  16.51000023  52.38999939
C    14.13000011  16.68000031  52.47000122
C     4.28000021  18.30000114  52.94000244
H     3.87613344  17.76151085  52.08266830
H     9.03999996  18.02999878  50.86000061
H     9.51000023  15.57000065  55.15999603
H     7.50000000  16.14999962  55.72999954
H     5.14999962  17.02999878  55.24000168
H     6.48000002  18.40999985  51.47999573
H    14.63999939  16.93000031  51.55000305
H     3.68999982  18.27999878  53.86000061
H     4.28000021  19.38999939  52.75000000
S    15.27999973  15.25000000  55.89000320
C    17.94999886  15.11999989  55.11000061
C    16.68000031  15.52000046  54.81999969
C    16.32999992  16.10000038  53.54000092
C    17.22999954  16.21000099  52.55000305
C    18.53999901  15.84000015  52.84999847
C    19.44000053  16.01000023  51.72999954
C    20.73999786  15.55999947  51.95000076
C    21.12999916  15.03999901  53.25000000
C    20.25000000  14.93999958  54.27000046
C    18.89999962  15.34000015  54.09999847
C    14.85999966  16.22999954  53.52000427
C    14.15999985  15.85000038  54.65999985
C    12.79999924  15.80999947  54.68999863
C    22.56000137  14.63999939  53.54999924
H    22.97227287  15.22159863  54.37454224
H    18.15000153  14.56999969  56.02000427
H    16.87999916  16.47999954  51.56000137
H    19.22000122  16.54000092  50.80999756
H    21.47000122  15.70000076  51.17000198
H    20.55000114  14.42999935  55.19000244
H    12.28999996  15.53999996  55.61000061
H    23.16999817  14.73999977  52.63999939
H    22.59000015  13.55000019  53.66000366
