96

S    12.51000023  17.21999931  44.52999878
C     9.90999985  17.75000000  45.13000107
C    11.13000011  17.31999969  45.56000137
C    11.31999969  16.87000084  46.84999847
C    10.27999973  16.84000015  47.70000076
C     9.04999924  17.38999939  47.32999802
C     7.90999985  17.28999901  48.16999817
C     6.67000008  17.64000130  47.63999939
C     6.42000008  18.25000000  46.39999771
C     7.49000025  18.27999878  45.52999878
C     8.80000019  17.79999924  46.00999832
C    12.77999973  16.52000046  47.04000092
C    13.52000046  16.79999924  45.90999985
C    14.88000011  16.90000153  45.81999969
C     5.03999996  18.51000023  45.89000320
H     4.69523001  17.94974899  45.02089310
H     9.85999966  18.22999954  44.15000153
H    10.26000023  16.35000038  48.67000198
H     8.09000015  16.94000053  49.18000031
H     5.79999971  17.57999992  48.27999878
H     7.44999981  18.37000084  44.45000076
H    15.21999931  16.98999977  44.79000092
H     4.33999968  18.27000046  46.70000076
H     4.94000006  19.56999969  45.61999893
S    15.88999939  15.85999966  49.38999939
C    18.60000038  15.44000053  48.74000168
C    17.35000038  15.80999947  48.34000015
C    16.97999954  16.21999931  47.04000092
C    17.97999954  16.21999931  46.11000061
C    19.29999924  15.77000046  46.40999603
C    20.36999893  15.77000046  45.45999908
C    21.63000107  15.29000092  45.86999893
C    21.87000084  15.03000069  47.18999863
C    20.93000031  15.14999962  48.15999985
C    19.59000015  15.39000034  47.72999573
C    15.59000015  16.60000038  46.93999863
C    14.88999939  16.36999893  48.11999893
C    13.50999928  16.35000038  48.23999786
C    23.31999969  14.55000019  47.43999863
H    23.76375771  14.98648453  48.33479309
H    18.71999931  15.10000038  49.77000427
H    17.86999893  16.64999962  45.11000061
H    20.27000046  16.28999901  44.51000214
H    22.34999847  15.03999901  45.08999634
H    21.11000061  14.96000099  49.20999908
H    13.04999924  16.25000000  49.22000122
H    23.81000137  14.73000050  46.46999741
H    23.42000008  13.45999908  47.51999664
S    16.23999977  13.15000057  52.18999863
C    18.85000038  12.43000031  51.36000061
C    17.50000000  12.55000019  51.05999756
C    17.07999992  12.13000107  49.75999832
C    17.95999908  11.61999893  48.76999664
C    19.36000061  11.75000000  48.94000244
C    20.30999947  11.23999977  47.95999908
C    21.63999939  11.00999928  48.27000046
C    22.06000137  11.36000061  49.61000061
C    21.18999863  11.78999996  50.56999969
C    19.78000069  12.02999973  50.34000015
C    15.69000053  12.50000000  49.62999725
C    15.11000061  12.94999981  50.86000061
C    13.73999977  13.27000046  50.97000122
C    23.46999931  10.90999985  49.94999695
H    23.83713913  11.38304424  50.86078644
H    19.06999969  12.71999931  52.37999725
H    17.60000038  11.28999901  47.80000305
H    19.90999985  10.81999969  47.04000092
H    22.27999878  10.34000015  47.70000076
H    21.40999985  11.90000057  51.63000107
H    13.36999989  13.66000080  51.90999985
H    23.47999954   9.81999969  50.00000000
H    24.09000015  11.14999962  49.08000183
S    12.13000107  12.38000011  47.35000229
C     9.48999977  13.07000065  48.20000076
C    10.88999939  13.01000023  48.47999954
C    11.46000004  13.32999992  49.75999832
C    10.60999966  13.82999992  50.72000122
C     9.22999954  14.02999973  50.44000244
C     8.36999989  14.56999969  51.45999908
C     7.03999996  14.78000069  51.23000336
C     6.46000004  14.32999992  50.00999832
C     7.25000000  13.80000019  49.01000214
C     8.60999966  13.60000038  49.20000076
C    12.86999893  13.09999943  49.86000061
C    13.43000031  12.55000019  48.61999893
C    14.77000046  12.22000027  48.50999832
C     5.00000000  14.42000008  49.79999924
H     4.66901541  14.05380440  48.82817078
H     9.11000061  12.75000000  47.23999786
H    10.85999966  14.14999962  51.72999954
H     8.73999977  15.06999969  52.35000229
H     6.48000002  15.26000023  52.02999878
H     6.84999990  13.45000076  48.06000137
H    15.14000034  11.64000034  47.67000198
H     4.65999985  15.46000004  49.86000061
H     4.59000015  13.90999985  50.68000031
