96

S    12.23999977  16.72999954  44.31000137
C     9.68000031  17.25000000  45.06000137
C    10.86999989  16.77999878  45.47000122
C    11.23999977  16.35000038  46.79000092
C    10.31000042  16.18000031  47.68000031
C     8.97999954  16.73999977  47.35000229
C     7.85000038  16.63999939  48.20000076
C     6.63999987  17.22999954  47.90000153
C     6.42000008  17.89999962  46.63999939
C     7.46999979  17.88999939  45.72000122
C     8.71999931  17.34000015  46.04999924
C    12.69999981  16.15999985  46.86000061
C    13.32999992  16.32999992  45.63000107
C    14.73000050  16.42000008  45.56999969
C     4.92999983  18.12000084  46.18000031
H     4.62806988  17.39393044  45.42517471
H     9.51000023  17.67000008  44.06999969
H    10.59000015  15.69000053  48.61000061
H     8.02999973  15.97000027  49.03999710
H     5.78999996  16.95999908  48.52000427
H     7.36999989  18.02999878  44.65000153
H    15.19000053  16.60000038  44.59999847
H     4.30999994  18.09000015  47.09000015
H     4.75000000  19.17000008  45.90000153
S    15.95000076  15.73999977  49.34000015
C    18.71000099  15.50000000  48.52000427
C    17.38000107  15.77000046  48.22999954
C    16.87999916  16.01000023  46.88000107
C    17.80999947  16.13999939  45.86999893
C    19.11999893  15.80999947  46.10000229
C    20.06999969  15.82999992  44.97000122
C    21.32999802  15.39999962  45.28999710
C    21.75000000  14.96999931  46.59999847
C    20.86999893  14.93000031  47.62000275
C    19.55999947  15.43000031  47.43999863
C    15.46000004  16.13000107  46.73999786
C    14.82999992  15.88999939  47.95000076
C    13.45999908  15.93999958  48.04000092
C    23.26000023  14.88000011  46.90000153
H    23.51786804  15.29545403  47.87416840
H    19.11000061  15.21000004  49.47999954
H    17.52000046  16.42000008  44.86000061
H    19.73999977  16.40999985  44.09999847
H    22.03000069  15.44999981  44.45999908
H    21.15999985  14.68999958  48.63999939
H    13.00000000  15.98000050  49.02000046
H    23.65999985  15.44000053  46.05999756
H    23.61999893  13.85000038  46.84000015
S    11.73999977  17.54999924  51.00000000
C     8.97999954  17.94000053  51.79000092
C    10.26000023  17.45000076  52.06999969
C    10.59000015  16.87999916  53.31999969
C     9.61999989  16.90999985  54.36000061
C     8.27999973  17.28000069  54.06999969
C     7.26999998  17.30999947  55.06999969
C     6.01000023  17.69000053  54.78000259
C     5.69000006  18.12999916  53.48999786
C     6.65000010  18.22000122  52.56999969
C     8.00000000  17.81999969  52.76000214
C    12.02000046  16.69000053  53.40999985
C    12.76000023  16.97000122  52.25000000
C    14.04000092  16.69000053  52.11000061
C     4.30000019  18.45999908  53.11000061
H     3.97153544  17.90789986  52.22943497
H     8.75000000  18.35000038  50.80999756
H     9.92999935  16.68000031  55.37000275
H     7.57000017  17.13000107  56.09000397
H     5.23000002  17.88999939  55.51000214
H     6.38999987  18.75000000  51.65999985
H    14.47000027  16.69999886  51.11000061
H     3.60000014  18.35000038  53.94000244
H     4.38000011  19.52999878  52.87000275
S    15.11000061  15.70000076  55.84999847
C    17.81999969  15.59999943  55.14999771
C    16.52000046  15.95999908  54.79999924
C    16.18000031  16.46999931  53.50000000
C    17.14999962  16.69999886  52.58999634
C    18.51000023  16.20000076  52.84999847
C    19.55999947  16.36000061  51.90999985
C    20.86000061  15.92000008  52.19999695
C    21.12999916  15.27999973  53.40999985
C    20.15999985  15.11999989  54.36999893
C    18.84000015  15.65999985  54.16999817
C    14.75999928  16.52000046  53.26000214
C    14.11000061  16.26000023  54.47000122
C    12.71999931  16.38000107  54.54000092
C    22.50000000  14.78000069  53.75000000
H    22.96465492  15.39954090  54.51705170
H    17.89999962  14.96999931  56.04000092
H    16.97999954  17.20999908  51.65000153
H    19.34000015  16.77000046  50.91999817
H    21.70999908  16.18000031  51.58000183
H    20.48999977  14.73000050  55.33000183
H    12.15999985  16.11999893  55.44000244
H    23.15999985  14.67000008  52.87000275
H    22.42000198  13.78000069  54.18000031
