96

S    12.42000008  16.61000061  44.20999908
C     9.72999954  16.95000076  45.01999664
C    10.98999977  16.46999931  45.34000015
C    11.31999969  16.13999939  46.70000076
C    10.31000042  16.11999893  47.63000107
C     9.00000000  16.46000099  47.31999969
C     8.05999947  16.45000076  48.34999847
C     6.78999996  16.76000023  47.97999954
C     6.47000027  17.21999931  46.73999786
C     7.36999989  17.36999893  45.76000214
C     8.69999981  16.95000076  46.00999832
C    12.79999924  16.15999985  46.90999985
C    13.52000046  16.35000038  45.63000107
C    14.93000031  16.36000061  45.54999924
C     5.05999994  17.65999985  46.44000244
H     4.77020311  17.34899712  45.43630981
H     9.52000046  17.29999924  44.01000214
H    10.60999966  15.71000004  48.59000397
H     8.36999989  15.97000027  49.27000046
H     6.06999969  16.75000000  48.79000092
H     7.13999987  17.79000092  44.78000259
H    15.36999893  16.65999985  44.59999847
H     4.41000032  17.07999992  47.09999847
H     4.79999971  18.72999954  46.51000214
S    16.05999947  15.13000011  49.15000153
C    18.64999962  14.60000038  48.43999863
C    17.43999863  15.15999985  48.01000214
C    17.09000015  15.80000019  46.79000092
C    18.09999847  15.69000053  45.86000061
C    19.38999939  15.18000031  46.16000366
C    20.45999908  15.34999943  45.27999878
C    21.75000000  15.05000019  45.65000153
C    22.00000000  14.35999966  46.86999893
C    20.98999977  14.22000027  47.78999710
C    19.68000031  14.61999989  47.49000168
C    15.65000057  16.05999947  46.66999817
C    14.98000050  15.73999977  47.88999939
C    13.60000038  15.92000008  48.04000092
C    23.47999954  14.11000061  47.22000122
H    23.77390099  14.66765690  48.10923767
H    18.85000038  14.30999947  49.47000122
H    17.86000061  16.03999901  44.86000061
H    20.17000008  15.76000023  44.31999969
H    22.57999802  15.13000011  44.94999695
H    21.11999893  13.96000004  48.83999634
H    13.12000084  15.65000057  48.97999573
H    24.01000023  14.63000107  46.40999603
H    23.77000046  13.04999924  47.29999924
S    11.69000053  16.63999939  50.97999954
C     9.15000057  17.35000038  51.73999786
C    10.34000015  16.75000000  52.06999969
C    10.73999977  16.39999962  53.39000320
C     9.81999969  16.51000023  54.38999939
C     8.56999969  17.02000046  54.09999847
C     7.57999992  17.15999985  55.07999802
C     6.32999992  17.56999969  54.72999954
C     5.97000027  17.97000122  53.40999985
C     6.98999977  17.94999886  52.48000336
C     8.23999977  17.40999985  52.80000305
C    12.20999908  16.10999870  53.47999954
C    12.89999962  16.27000046  52.23999786
C    14.26000023  16.22999954  52.19999695
C     4.51999998  18.18000031  53.00000000
H     4.21688652  17.68655777  52.07656097
H     8.82000065  17.82999992  50.81999969
H    10.13000011  16.20000076  55.38000107
H     7.86000013  16.73999977  56.04000092
H     5.59999990  17.31999969  55.48999786
H     6.83000040  18.20000076  51.43000031
H    14.78999996  16.31999969  51.25999832
H     3.95000005  17.73999977  53.82999802
H     4.39000034  19.27000046  52.95999908
S    15.44999981  15.43000031  55.97999954
C    18.09999847  14.93999958  55.27999878
C    16.80999947  15.31999969  54.84000397
C    16.52000046  15.78999996  53.50999832
C    17.53000069  15.85000038  52.57999802
C    18.81999969  15.31000042  52.83000183
C    19.88999939  15.26000023  51.93000031
C    21.11999893  14.73000050  52.25000000
C    21.42000008  14.29999924  53.54000092
C    20.38000107  14.46000004  54.47000122
C    19.06999969  14.84000015  54.19000244
C    15.05000019  16.01000023  53.36999893
C    14.37999916  15.86999989  54.62999725
C    13.00000000  15.90999985  54.64000320
C    22.86999893  14.06999969  53.99000168
H    23.12330627  14.59832191  54.90913773
H    18.43000031  14.51000023  56.23000336
H    17.38999939  16.14999962  51.55000305
H    19.75000000  15.84000015  51.02000427
H    21.87999916  14.80999947  51.47999573
H    20.61000061  14.40000057  55.52999878
H    12.46000099  15.59000015  55.52999878
H    23.48999977  14.34000015  53.13000107
H    22.90999985  12.97999954  54.09999847
