96

S    12.30999947  16.86000061  44.34999847
C     9.67000008  17.04000092  44.95999908
C    10.98999977  16.77000046  45.37000275
C    11.35000038  16.32999992  46.66999817
C    10.36999893  16.15999985  47.63000107
C     9.06000042  16.59000015  47.31999969
C     7.96999979  16.57999992  48.23999786
C     6.61000013  16.79999924  47.83000183
C     6.32000017  17.30999947  46.56000137
C     7.36999989  17.50000000  45.65999985
C     8.73000050  17.09000015  45.96000290
C    12.81000042  16.15999985  46.86999893
C    13.47000027  16.45000076  45.66999817
C    14.85000038  16.28999901  45.52999878
C     4.88000011  17.53000069  46.18999863
H     4.53818512  16.96743011  45.32122040
H     9.48999977  17.36999893  43.93000031
H    10.48999977  15.80000019  48.63999939
H     8.22000027  16.21000099  49.22999954
H     5.75999975  16.72000122  48.48999786
H     7.13000011  17.82999992  44.65000153
H    15.44999981  16.54999924  44.65999985
H     4.23999977  17.21999931  47.02999878
H     4.81999969  18.60999870  45.98999786
S    16.03000069  15.25000000  49.15000153
C    18.65999985  14.88999939  48.13999939
C    17.39999962  15.31000042  47.98999786
C    17.01000023  15.78999996  46.70999908
C    17.88999939  15.88999939  45.63000107
C    19.22000122  15.47000027  45.77000046
C    20.15000153  15.38000011  44.69999695
C    21.48999977  14.98999977  44.93000031
C    21.87000084  14.60999966  46.30000305
C    20.93000031  14.56999969  47.25999832
C    19.63999939  15.05000019  47.09000015
C    15.57999992  15.90999985  46.63999939
C    14.93999958  15.67999935  47.85999680
C    13.56999969  15.82999992  48.02999878
C    23.31999969  14.47000027  46.63999939
H    23.58530426  15.18911839  47.41497040
H    19.12999916  14.47000027  49.02999878
H    17.47999954  16.21000099  44.68000031
H    19.80999947  15.72999954  43.73000336
H    22.27000046  15.00000000  44.16999817
H    21.25999832  14.22000027  48.23999786
H    13.04999924  15.77999973  48.97999573
H    23.82999802  14.68000031  45.68000031
H    23.52999878  13.42000008  46.86000061
S    11.82999992  17.22999954  50.90999985
C     9.15000057  17.46000099  51.70999908
C    10.43000031  16.97999954  51.97999954
C    10.75000000  16.53000069  53.27999878
C     9.70000076  16.44000053  54.27999878
C     8.38000011  16.79999924  53.95000076
C     7.28999996  16.75000000  54.86000061
C     6.00000000  17.13999939  54.52999878
C     5.72000027  17.52000046  53.20000076
C     6.75000000  17.68000031  52.27000427
C     8.09000015  17.35000038  52.68000031
C    12.18999958  16.28999901  53.43999863
C    12.86999893  16.65999985  52.25000000
C    14.25000000  16.50000000  52.09000015
C     4.33999968  17.85000038  52.80000305
H     3.99766350  17.26313782  51.94765472
H     8.73999977  17.88999939  50.79999924
H     9.94000053  16.04999924  55.26000214
H     7.39000034  16.45000076  55.90000153
H     5.31000042  17.05999947  55.35999680
H     6.63999987  18.06999969  51.26999664
H    14.78000069  16.55999947  51.13999939
H     3.63999987  17.80999947  53.63999939
H     4.36999989  18.94000053  52.62000275
S    15.40999985  15.51000023  55.76000214
C    18.15999985  15.24000072  55.07999802
C    16.84000015  15.69000053  54.75999832
C    16.40999985  16.10000038  53.40000153
C    17.35999870  16.09000015  52.39999771
C    18.71000099  15.75000000  52.70999908
C    19.69000053  15.71000004  51.72000122
C    20.95000076  15.34999943  51.97000122
C    21.34000015  14.88999939  53.23999786
C    20.45000076  14.80999947  54.25000000
C    19.10000038  15.31999969  54.02000046
C    14.96999931  16.20000076  53.29999924
C    14.28999996  15.98000050  54.47000122
C    12.93000031  15.90000057  54.56999969
C    22.86000061  14.75999928  53.54999924
H    23.08757401  15.06832695  54.57041168
H    18.38999939  14.86999989  56.06999969
H    17.12000084  16.38000107  51.38000107
H    19.43000031  16.10999870  50.75000000
H    21.70000076  15.57000065  51.20999908
H    20.69000053  14.45000076  55.25000000
H    12.43999958  15.67000008  55.52000046
H    23.45000076  15.44999981  52.94000244
H    23.25000000  13.73999977  53.39000320
