96

S    12.36999989  17.38000107  44.15999985
C     9.67000008  17.46999931  44.85000229
C    10.95000076  17.12000084  45.14999771
C    11.30000019  16.54999924  46.46999741
C    10.34999943  16.44000053  47.50000000
C     9.00000000  16.93000031  47.22999954
C     7.96000004  16.95000076  48.15000153
C     6.70000029  17.35000038  47.81999969
C     6.32999992  17.79999924  46.56000137
C     7.39000034  17.90999985  45.63999939
C     8.67000008  17.38999939  45.91999817
C    12.74000072  16.46000099  46.60999680
C    13.43000031  16.88999939  45.47000122
C    14.85999966  16.98999977  45.45999908
C     4.90000010  18.04999924  46.06999969
H     4.53683567  17.40356827  45.27103806
H     9.46000004  17.94999886  43.89999771
H    10.64000034  16.10999870  48.48999786
H     8.18000031  16.76000023  49.20000076
H     6.01000023  17.46000099  48.64999771
H     7.32999992  18.30999947  44.62999725
H    15.44000053  17.27000046  44.59000015
H     4.23999977  18.09000015  46.93999863
H     4.99000025  19.04999924  45.61000061
S    15.85999966  16.02000046  49.25000000
C    18.50000000  15.62000084  48.57999802
C    17.26000023  16.03000069  48.18000031
C    16.95999908  16.46000099  46.88000107
C    17.97999954  16.48999977  45.93999863
C    19.27999878  16.01000023  46.31000137
C    20.36999893  15.95999908  45.31999969
C    21.67000008  15.47999954  45.68999863
C    21.90999985  15.07999992  47.05999756
C    20.85000038  15.10000038  47.95999908
C    19.56999969  15.59000015  47.63000107
C    15.52999973  16.53000069  46.62000275
C    14.80000019  16.18999863  47.80000305
C    13.40999985  16.15999985  47.77999878
C    23.23999786  14.60000038  47.56999969
H    23.66197014  15.23295593  48.35064697
H    18.63999939  15.22999954  49.59000015
H    17.86000061  16.77000046  44.88999939
H    20.13000107  16.35000038  44.33000183
H    22.46000099  15.43000031  44.94999695
H    21.02000046  14.68000031  48.95000076
H    12.79999924  16.13999939  48.68000031
H    23.92999840  14.68999958  46.72000122
H    23.19000053  13.53999996  47.87000275
S    15.82999992  13.22000027  52.04999924
C    18.44000053  12.77999973  51.10000229
C    17.12000084  12.84000015  50.89000320
C    16.68000031  12.44999981  49.65999985
C    17.53000069  12.10000038  48.60000229
C    18.92000008  11.97999954  48.74000168
C    19.85000038  11.36000061  47.84999847
C    21.18999863  11.30000019  48.22000122
C    21.63999939  11.63000011  49.56999969
C    20.72999954  12.22000027  50.45000076
C    19.37000084  12.30999947  50.08999634
C    15.22999954  12.56999969  49.56999969
C    14.65999985  12.97999954  50.80999756
C    13.35000038  13.23999977  50.97999954
C    23.05999947  11.30000019  49.99000168
H    23.34374619  11.74055290  50.94577408
H    18.88000107  12.94999981  52.08000183
H    17.09000015  11.87000084  47.63999939
H    19.48999977  10.76000023  47.02000046
H    21.94999886  10.80000019  47.62000275
H    20.97999954  12.68000031  51.39999771
H    12.97000027  13.53999996  51.95000076
H    23.13999939  10.21000004  50.01999664
H    23.75000000  11.57999992  49.18000031
S    11.77000046  12.64000034  47.27000427
C     9.22000027  13.09999943  48.16999817
C    10.55999947  13.14000034  48.41999817
C    11.05999947  13.43000031  49.73999786
C    10.19999981  13.71000099  50.76000214
C     8.85000038  13.94000053  50.48999786
C     7.96000004  14.40999985  51.42000198
C     6.63000011  14.51000023  51.14999771
C     6.17999983  14.15999985  49.91000366
C     7.00999975  13.67000008  48.95999908
C     8.34000015  13.55999947  49.15999985
C    12.51999950  13.19000053  49.79999924
C    13.04999924  12.67000008  48.57999802
C    14.40999985  12.34000015  48.50999832
C     4.84000015  14.56999969  49.52000046
H     4.57717896  14.09408092  48.57526398
H     8.93000031  12.94999981  47.12999725
H    10.59000015  13.73000050  51.77000046
H     8.27000046  14.65999985  52.43000031
H     6.03999996  15.01000023  51.90999985
H     6.65999985  13.43000031  47.95999908
H    14.82999992  11.84000015  47.64999771
H     4.75000000  15.67000008  49.56999969
H     4.15000010  14.30999947  50.33000183
