96

S    12.43999958  17.13000107  44.34999847
C     9.73999977  17.52000046  45.17000198
C    11.00000000  17.01000023  45.40000153
C    11.32999992  16.54000092  46.70000076
C    10.34000015  16.39999962  47.69000244
C     9.04999924  16.81999969  47.43000031
C     7.94000053  16.77000046  48.41999817
C     6.72999954  17.22999954  48.02000046
C     6.47000027  17.82999992  46.81999969
C     7.49000025  17.94000053  45.90000153
C     8.78999996  17.50000000  46.18999863
C    12.79999924  16.40999985  46.90999985
C    13.48000050  16.72999954  45.70999908
C    14.80999947  16.77999878  45.52000046
C     5.10999966  18.30000114  46.45999908
H     4.82377863  17.69265366  45.60133362
H     9.48000050  17.89999962  44.18000031
H    10.59000015  16.06999969  48.69999695
H     8.14999962  16.39000130  49.41999817
H     5.97000027  17.22999954  48.79000092
H     7.30999994  18.44000053  44.95999908
H    15.19999981  17.04000092  44.54000092
H     4.32999992  18.20999908  47.22000122
H     5.09999990  19.36000061  46.19999695
S    15.90999985  15.69000053  49.16999817
C    18.63999939  15.32999992  48.33000183
C    17.34000015  15.73999977  48.02999878
C    16.95000076  16.15999985  46.70999908
C    17.88999939  16.29999924  45.68999863
C    19.25000000  15.81999969  45.90999985
C    20.30999947  15.75000000  44.92000198
C    21.57999992  15.29999924  45.18000031
C    21.94999886  14.86999989  46.52000046
C    20.94000053  14.86999989  47.50000000
C    19.55000114  15.36999893  47.25000000
C    15.55999947  16.47999954  46.66999817
C    14.88999939  16.18999863  47.93000031
C    13.52000046  16.18999863  48.02000046
C    23.29999924  14.47000027  47.00000000
H    23.59736633  14.91950893  47.94742584
H    18.88000107  14.81999969  49.26000214
H    17.60000038  16.75000000  44.75000000
H    20.15999985  16.07999992  43.89999771
H    22.27000046  15.40999985  44.34999847
H    21.14999962  14.52000046  48.50000000
H    13.03999996  15.98000050  48.96999741
H    24.10000038  14.72000027  46.29000092
H    23.28000069  13.38999939  47.15999985
S    16.35000038  13.00000000  52.22999954
C    18.92000008  12.64000034  51.27999878
C    17.57999992  12.64999962  51.03000259
C    17.05999947  12.35999966  49.78000259
C    17.94000053  11.85999966  48.86000061
C    19.36000061  11.77000046  49.06000137
C    20.31999969  11.25000000  48.15000153
C    21.63999939  11.05999947  48.43000031
C    22.14999962  11.36999989  49.77000427
C    21.21999931  11.98999977  50.61999893
C    19.86999893  12.13999939  50.33000183
C    15.59999943  12.46000099  49.75000000
C    15.08999920  12.84000015  50.97999954
C    13.64999962  13.01000023  51.17000198
C    23.55999947  11.05000019  50.10000229
H    23.80060005  11.26937008  51.14023590
H    19.38999939  13.02999973  52.18000031
H    17.46000099  11.46999931  47.95999908
H    19.86999893  10.90000057  47.22999954
H    22.32000160  10.57000065  47.74000168
H    21.42999840  12.31999969  51.63999939
H    13.27000046  13.48000050  52.08000183
H    23.77000046  10.03000069  49.75000000
H    24.20000076  11.64999962  49.43999863
S    12.20999908  12.30999947  47.51999664
C     9.57999992  12.84000015  48.30999756
C    10.85999966  12.97999954  48.57999802
C    11.39000034  13.30999947  49.87999725
C    10.52000046  13.71000099  50.84999847
C     9.13999939  13.78000069  50.56999969
C     8.19000053  14.40999985  51.46999741
C     6.83000040  14.47000027  51.14999771
C     6.38999987  13.92000008  49.93999863
C     7.26000023  13.38999939  49.06999969
C     8.60999966  13.34000015  49.29000092
C    12.81000042  12.97000027  50.02999878
C    13.43999958  12.57999992  48.80000305
C    14.78000069  12.22000027  48.62999725
C     4.97000027  14.01999950  49.61000061
H     4.78919697  13.86701298  48.54604340
H     9.11000061  12.34000015  47.47000122
H    11.02000046  13.80000019  51.81000137
H     8.60999966  14.85999966  52.36999893
H     6.21999979  15.05000019  51.83000183
H     6.88000011  13.03999996  48.11000061
H    15.21999931  11.92000008  47.68000031
H     4.61999989  14.98999977  49.94999695
H     4.42999983  13.38000107  50.31000137
