96

S    12.75000000  16.52000046  44.06000137
C    10.01999950  16.97000122  44.79999924
C    11.32999992  16.48999977  45.15999603
C    11.69000053  16.10000038  46.45999908
C    10.67000008  16.07999992  47.43000031
C     9.34000015  16.48999977  47.11000061
C     8.31999969  16.44000053  48.09000015
C     7.11000013  16.93000031  47.81000137
C     6.71999979  17.31999969  46.47999573
C     7.63000011  17.34000015  45.48999786
C     8.96000004  16.97000122  45.77999878
C    13.12999916  16.00000000  46.55000305
C    13.83999920  16.21000099  45.38000107
C    15.25000000  16.21000099  45.40000153
C     5.25000000  17.65999985  46.26999664
H     4.76666355  17.09009552  45.47646332
H     9.85000038  17.18000031  43.74000168
H    10.88999939  15.67000008  48.40999985
H     8.55000019  16.20000076  49.12000275
H     6.40999985  17.17000008  48.60000229
H     7.37999964  17.72999954  44.50000000
H    15.82999992  16.36000061  44.50000000
H     4.76000023  17.53999901  47.25000000
H     5.13000011  18.71000099  45.97000122
S    16.21999931  15.46000004  49.09999847
C    19.00000000  15.31000042  48.37999725
C    17.71000099  15.67000008  48.04999924
C    17.34000015  15.93000031  46.72999954
C    18.26000023  15.98999977  45.72000122
C    19.56999969  15.55999947  46.00000000
C    20.59000015  15.38000011  44.97000122
C    21.81999969  15.01999950  45.38999939
C    22.18000031  14.72000027  46.73999786
C    21.24000168  14.80999947  47.77000046
C    19.93999863  15.21999931  47.37999725
C    15.88999939  16.03000069  46.60999680
C    15.15999985  15.81999969  47.77999878
C    13.76000023  15.81999969  47.80000305
C    23.59999847  14.40999985  47.09000015
H    23.83155251  14.61348820  48.13550186
H    19.22000122  14.91000080  49.36000061
H    18.02999878  16.21999931  44.68000031
H    20.38000107  15.77000046  43.96999741
H    22.65999985  15.01000023  44.68999863
H    21.48999977  14.45000076  48.75999832
H    13.15999985  15.67000008  48.69999695
H    24.10000038  15.17000008  46.46999741
H    24.01000023  13.48999977  46.65999985
S    16.18000031  13.09000015  52.38999939
C    18.89000130  12.63000011  51.55000305
C    17.50000000  12.55000019  51.33999634
C    16.98999977  12.17000008  50.01999664
C    17.92000008  11.72999954  49.02999878
C    19.27999878  11.77999973  49.26000214
C    20.20999908  11.26999950  48.29000092
C    21.55999947  11.26999950  48.54000092
C    21.98999786  11.63000011  49.84000397
C    21.14999962  12.13000107  50.77000046
C    19.75000000  12.17000008  50.52999878
C    15.57999992  12.41000080  49.87999725
C    15.03000069  12.98999977  50.98999786
C    13.69999981  13.31999969  51.06999969
C    23.36000061  11.35000038  50.34000015
H    23.57509041  11.65112591  51.36526108
H    19.20999908  13.04999924  52.50000000
H    17.68000031  11.17000008  48.13000107
H    19.72999954  10.86999989  47.39999771
H    22.20000076  10.80000019  47.80000305
H    21.37000084  12.56999969  51.73999786
H    13.17000008  13.53000069  52.00000000
H    23.48999977  10.26000023  50.27999878
H    24.10000038  11.87999916  49.72000122
S    12.38999939  12.28999996  47.51999664
C     9.57999992  12.46000099  48.31999969
C    10.93999958  12.64999962  48.59000397
C    11.40999985  13.22999954  49.80999756
C    10.47000027  13.68999958  50.72999954
C     9.06999969  13.61999989  50.45000076
C     8.09000015  14.18000031  51.27999878
C     6.75000000  14.27000046  50.98999786
C     6.37000036  13.71000099  49.75999832
C     7.21000004  13.07999992  48.92000198
C     8.61999989  12.97000027  49.22999954
C    12.81999969  13.09000015  49.93999863
C    13.48000050  12.61000061  48.77999878
C    14.80999947  12.30000019  48.70999908
C     4.94999981  14.06999969  49.29000092
H     4.65490961  13.70464993  48.30636597
H     9.25000000  11.79999924  47.51999664
H    10.75000000  14.02999973  51.72000122
H     8.36000061  14.68999958  52.21000290
H     6.03999996  14.60999966  51.72999954
H     6.88000011  12.93000031  47.90000153
H    15.27999973  12.10000038  47.75000000
H     4.80999994  15.15999985  49.31000137
H     4.21000004  13.82999992  50.06000137
