96

S    12.46999931  17.32999992  44.19000244
C     9.77999973  17.54999924  44.92000198
C    11.03999996  17.07999992  45.19000244
C    11.38000011  16.56999969  46.40999603
C    10.42000008  16.39999962  47.42000198
C     9.10000038  16.90000153  47.22000122
C     8.06999969  16.93000031  48.20999908
C     6.81999969  17.50000000  47.90999985
C     6.50000000  17.93000031  46.59999847
C     7.42000008  17.97000122  45.59000015
C     8.73000050  17.48999977  45.87999725
C    12.81999969  16.35000038  46.58000183
C    13.55999947  16.59000015  45.38999939
C    14.94999981  16.65999985  45.40000153
C     5.05000019  18.38999939  46.32999802
H     4.81271839  18.12560081  45.29951859
H     9.55999947  17.94999886  43.93000031
H    10.77000046  16.10000038  48.40000153
H     8.30000019  16.51000023  49.19000244
H     6.15000010  17.54999924  48.75999832
H     7.11999989  18.50000000  44.68999863
H    15.42000008  17.10000038  44.52000046
H     4.38000011  17.84000015  47.00000000
H     4.92000008  19.47000122  46.47999573
S    15.85999966  15.36000061  49.01000214
C    18.63999939  15.13000011  48.37999725
C    17.35999870  15.43000031  48.00000000
C    17.05999947  15.92000008  46.70999908
C    18.07999992  16.03000069  45.77000046
C    19.38999939  15.67000008  46.09000397
C    20.52999878  15.92000008  45.27000046
C    21.78999901  15.52000046  45.56999969
C    22.01000023  14.82999992  46.79999924
C    20.96999931  14.61999989  47.70000076
C    19.69000053  15.13000011  47.36000061
C    15.62999916  16.22999954  46.52999878
C    14.91000080  15.90999985  47.70999908
C    13.50000000  16.03999901  47.76000214
C    23.36000061  14.28999996  47.11999893
H    23.71511459  14.62422562  48.09482574
H    18.77000046  14.73999977  49.38000107
H    17.92000008  16.46000099  44.78000259
H    20.26000023  16.32999992  44.29999924
H    22.59000015  15.65999985  44.85000229
H    21.17000198  14.01000023  48.56999969
H    12.94000053  15.77000046  48.66000366
H    23.95000076  14.65000057  46.26999664
H    23.31000137  13.20000076  47.02999878
S    11.87999916  16.97000122  50.76000214
C     9.35000038  17.61000061  51.58000183
C    10.60999966  17.20999908  51.91999817
C    11.00000000  16.87000084  53.25000000
C    10.00000000  16.82999992  54.20000076
C     8.65999985  17.18000031  53.86000061
C     7.63000011  17.13999939  54.84000397
C     6.39999962  17.65999985  54.52999878
C     6.11999989  18.23999977  53.27000046
C     7.07999992  18.12999916  52.27000427
C     8.30000019  17.60000038  52.55000305
C    12.42000008  16.63999939  53.31999969
C    13.07000065  16.54999924  52.09999847
C    14.47000027  16.36000061  52.02000046
C     4.76999998  18.85000038  52.98999786
H     4.34422779  18.24682236  52.18812943
H     9.17000008  17.98999977  50.58000183
H    10.21000004  16.53000069  55.22999573
H     7.81000042  16.70999908  55.81999969
H     5.63000011  17.70000076  55.28999710
H     6.89000034  18.45000076  51.25000000
H    14.88999939  16.52000046  51.03000259
H     4.23000002  18.68999863  53.93000031
H     4.88999987  19.90999985  52.72999573
S    15.65000057  15.72000027  55.72999954
C    18.15999985  14.96000099  54.93999863
C    16.95000076  15.44999981  54.55999756
C    16.62999916  15.78999996  53.20000076
C    17.60000038  15.86999989  52.22000122
C    18.95000076  15.46000004  52.60000229
C    20.02000046  15.55999947  51.66999817
C    21.28000069  15.21000004  52.02000046
C    21.51000023  14.80999947  53.36000061
C    20.50000000  14.70999908  54.27000046
C    19.20999908  15.01999950  53.95000076
C    15.18000031  16.02000046  53.11000061
C    14.52999973  16.07999992  54.36000061
C    13.15000057  16.46000099  54.45000076
C    22.96999931  14.55999947  53.83999634
H    23.21979332  14.87402630  54.85345078
H    18.40999985  14.70000076  55.96000290
H    17.32999992  16.03000069  51.18000031
H    19.86999893  16.06999969  50.72999954
H    22.13000107  15.27999973  51.35000229
H    20.82999992  14.55999947  55.30000305
H    12.76000023  16.54000092  55.45999908
H    23.59000015  15.13000011  53.11999893
H    23.13999939  13.48000050  53.75999832
