96

S    12.07999992  17.47999954  44.40000153
C     9.43000031  17.82999992  45.05000305
C    10.65999985  17.39999962  45.38999939
C    10.98000050  16.76000023  46.69000244
C     9.96000004  16.56999969  47.56000137
C     8.67999935  17.05999947  47.25999832
C     7.68000031  16.97000122  48.27999878
C     6.39999962  17.43000031  47.95999908
C     6.09000015  18.04000092  46.69000244
C     7.05999947  18.22999954  45.81999969
C     8.36999989  17.75000000  46.00999832
C    12.39999962  16.46000099  46.77999878
C    13.15000057  16.73999977  45.65000153
C    14.50000000  16.69999886  45.56999969
C     4.65999985  18.44000053  46.44000244
H     4.33653879  17.77151299  45.64213181
H     9.22999954  18.05999947  44.00000000
H    10.19000053  16.18999863  48.54999924
H     7.86000013  16.44000053  49.20999908
H     5.63000011  17.28999901  48.70999908
H     6.83000040  18.78000069  44.91000366
H    15.01999950  16.95000076  44.65000153
H     4.00000000  18.48999977  47.30999756
H     4.69000006  19.45999908  46.04000092
S    15.62999916  15.71000004  49.29000092
C    18.30000114  15.32999992  48.60000229
C    17.01000023  15.71000004  48.20999908
C    16.68000031  16.23999977  46.93999863
C    17.70000076  16.36999893  45.97000122
C    18.96999931  15.88000107  46.25999832
C    19.96999931  15.86999989  45.22999573
C    21.21999931  15.36000061  45.40999985
C    21.45000076  14.75000000  46.68000031
C    20.59999847  14.82999992  47.77000046
C    19.29999924  15.34999943  47.56999969
C    15.22999954  16.46999931  46.77000046
C    14.51000023  16.15999985  47.95000076
C    13.12000084  16.13000107  47.95000076
C    22.80999947  14.15999985  47.04999924
H    23.26782417  14.65474606  47.90657425
H    18.48999977  14.93999958  49.59999847
H    17.42000008  16.77999878  45.00999832
H    19.65999985  16.10000038  44.20999908
H    21.97999954  15.44999981  44.62999725
H    20.86999893  14.45000076  48.75000000
H    12.56000042  15.93000031  48.86000061
H    23.50000000  14.11000061  46.19999695
H    22.67999840  13.10999966  47.36000061
S    15.93000031  13.31999969  52.30999756
C    18.71000099  12.77999973  51.45000076
C    17.30999947  12.72999954  51.22000122
C    16.82999992  12.20000076  50.00999832
C    17.75000000  11.72000027  49.05000305
C    19.11999893  11.64999962  49.25000000
C    20.02000046  11.18000031  48.26000214
C    21.31999969  10.92000008  48.62999725
C    21.80999947  11.59999943  49.80999756
C    21.00000000  12.23999977  50.68999863
C    19.59000015  12.25999928  50.45999908
C    15.39999962  12.43000031  49.87999725
C    14.84000015  13.07999992  51.02000427
C    13.55000019  13.56999969  51.03000259
C    23.26000023  11.33999920  50.06000137
H    23.58417511  11.79384327  50.99650192
H    19.10000038  13.07000065  52.42000198
H    17.31999969  11.36999989  48.11999893
H    19.63999939  10.82999992  47.30999756
H    21.97000122  10.52000046  47.84999847
H    21.30000114  12.68000031  51.63999939
H    13.12999916  14.04000092  51.90999985
H    23.43000031  10.26999950  50.21999741
H    23.94000053  11.51999950  49.22000122
S    12.07999992  12.68000031  47.52999878
C     9.44000053  13.22999954  48.20999908
C    10.77000046  13.23999977  48.56999969
C    11.30000019  13.52000046  49.82999802
C    10.42000008  14.06999969  50.72999954
C     9.03999996  14.14999962  50.45999908
C     8.17000008  14.68999958  51.45000076
C     6.86999989  14.63999939  51.23000336
C     6.32999992  14.14999962  49.99000168
C     7.07000017  13.57999992  49.02000046
C     8.50000000  13.60000038  49.22999954
C    12.75000000  13.32999992  49.94999695
C    13.30000019  12.75000000  48.81000137
C    14.60999966  12.22000027  48.80000305
C     4.86999989  14.29999924  49.69999695
H     4.71806622  14.01783752  48.65817261
H     9.11999989  13.00000000  47.18999863
H    10.85000038  14.35999966  51.69000244
H     8.55000019  15.11000061  52.37999725
H     6.32000017  15.18000031  52.00000000
H     6.67000008  13.22000027  48.08000183
H    14.96000099  11.69000053  47.91999817
H     4.59000015  15.34000015  49.91000366
H     4.41000032  13.55000019  50.34999847
