96

S    12.20000076  16.87999916  44.18000031
C     9.56999969  17.38000107  44.93000031
C    10.82999992  16.97999954  45.31999969
C    11.19999981  16.48999977  46.65999985
C    10.19999981  16.31999969  47.55000305
C     8.85999966  16.84000015  47.25999832
C     7.83999968  17.04000092  48.26000214
C     6.60000038  17.47999954  47.81999969
C     6.32999992  17.80999947  46.52999878
C     7.32999992  17.89999962  45.63000107
C     8.57999992  17.45000076  45.96000290
C    12.67000008  16.39000130  46.70999908
C    13.31999969  16.63999939  45.50000000
C    14.68000031  16.69999886  45.44000244
C     4.90000010  18.22999954  46.10000229
H     4.63665295  17.71754074  45.17472839
H     9.23999977  17.57999992  43.90999603
H    10.42000008  16.13999939  48.60000229
H     8.05999947  16.84999847  49.29999924
H     5.77000046  17.65999985  48.48999786
H     7.11000013  18.34000015  44.65999985
H    15.14000034  16.90000153  44.47999954
H     4.19000006  17.94000053  46.88000107
H     4.84000015  19.31999969  45.94999695
S    15.81999969  15.71000004  49.05000305
C    18.45000076  15.21000004  48.20999908
C    17.18000031  15.72999954  47.97000122
C    16.84000015  16.10999870  46.65000153
C    17.82999992  16.15999985  45.65000153
C    19.17000008  15.76000023  45.94999695
C    20.13000107  15.81999969  44.97000122
C    21.42000008  15.38000011  45.21999741
C    21.78999901  14.93999958  46.52999878
C    20.82999992  14.96000099  47.52999878
C    19.47999954  15.22999954  47.29000092
C    15.44000053  16.29999924  46.53999710
C    14.73999977  16.07999992  47.76000214
C    13.40000057  16.13999939  47.85999680
C    23.26000023  14.63000107  46.83000183
H    23.55147171  15.14007473  47.74813461
H    18.71000099  14.93000031  49.22999954
H    17.64999962  16.64999962  44.69999695
H    19.85999870  16.32999992  44.05000305
H    22.18000031  15.44999981  44.43999863
H    21.21999931  14.82999992  48.53000259
H    12.89999962  15.98000050  48.81999969
H    23.92999840  14.93999958  46.02000427
H    23.36000061  13.53999996  46.90000153
S    11.89000034  17.15999985  50.93999863
C     9.25000000  17.67000008  51.73999786
C    10.52999973  17.19000053  52.08000183
C    10.86999989  16.60000038  53.31999969
C     9.76000023  16.35000038  54.15999985
C     8.51000023  16.92000008  53.93000031
C     7.42000008  16.75000000  54.84000397
C     6.19999981  17.28999901  54.62999725
C     5.92999983  17.92000008  53.37999725
C     6.91999960  18.15000153  52.52999878
C     8.19000053  17.53999901  52.64999771
C    12.27000046  16.38000107  53.44999695
C    12.94000053  16.61000061  52.23999786
C    14.32000065  16.63999939  52.25000000
C     4.48999977  18.12000084  52.97999954
H     4.21987629  17.57975197  52.07265854
H     9.01000023  18.20000076  50.81999969
H     9.88000011  15.59000015  54.92000198
H     7.57999992  16.02000046  55.63000107
H     5.40999985  17.13999939  55.34999847
H     6.76000023  18.73999977  51.62000275
H    14.80000019  16.82999992  51.29000092
H     3.89999986  17.94999886  53.88999939
H     4.26000023  19.18000031  52.81999969
S    15.38000011  15.80000019  55.96000290
C    18.05999947  15.48999977  55.20000076
C    16.79000092  15.92000008  54.93999863
C    16.44000053  16.36000061  53.62999725
C    17.42000008  16.40999985  52.64999771
C    18.76000023  16.02000046  52.93000031
C    19.78999901  15.98999977  51.97000122
C    21.07999992  15.69000053  52.31999969
C    21.42999840  15.29999924  53.69999695
C    20.36000061  15.14000034  54.52999878
C    19.06999969  15.62000084  54.27000046
C    15.08999920  16.48999977  53.39000320
C    14.37999916  16.32999992  54.61999893
C    13.01000023  16.31000137  54.61999893
C    22.75000000  14.85000038  54.06999969
H    23.04283524  15.37989426  54.97639847
H    18.19000053  15.03999901  56.18000031
H    17.12000084  16.65999985  51.63999939
H    19.59000015  16.10000038  50.90999985
H    21.91999817  15.62000084  51.63000107
H    20.39999962  14.55000019  55.44000244
H    12.48999977  16.36000061  55.58000183
H    23.50000000  15.08999920  53.29999924
H    22.75000000  13.75000000  54.06000137
