96

S    11.98999977  16.72999954  44.27000046
C     9.30000019  17.30999947  45.10000229
C    10.53999996  16.69999886  45.31000137
C    10.82999992  16.21999931  46.68000031
C     9.94999981  16.11999893  47.69000244
C     8.69000053  16.65999985  47.42000198
C     7.69999981  16.81999969  48.40000153
C     6.38000011  17.21999931  48.13999939
C     6.11999989  17.77000046  46.84999847
C     7.09000015  17.86000061  45.90000153
C     8.36999989  17.28000069  46.11000061
C    12.25000000  16.07999992  46.77000046
C    13.02000046  16.21000099  45.63999939
C    14.40000057  16.21000099  45.61000061
C     4.76999998  18.23999977  46.49000168
H     4.40313959  17.70769310  45.61241150
H     9.04999924  17.72999954  44.12000275
H    10.34000015  15.95999908  48.69999695
H     7.88000011  16.42000008  49.40000153
H     5.60999966  17.13000107  48.89999771
H     7.07000017  18.42000008  44.97000122
H    14.94999981  16.40999985  44.69999695
H     4.07999992  18.15999985  47.34000397
H     4.97000027  19.30999947  46.37000275
S    15.47000027  15.42000008  49.22999954
C    18.15999985  15.31000042  48.53000259
C    16.84999847  15.59999943  48.15999985
C    16.47999954  15.95999908  46.86000061
C    17.46000099  15.90000057  45.84999847
C    18.79999924  15.55999947  46.09000397
C    19.86999893  15.50000000  45.18000031
C    21.09999847  15.15999985  45.56999969
C    21.32999802  14.92000008  46.93999863
C    20.39999962  14.94999981  47.94000244
C    19.11000061  15.29000092  47.51999664
C    15.03999901  16.03000069  46.77999878
C    14.35999966  15.72999954  47.93000031
C    12.97999954  15.81999969  47.91999817
C    22.77000046  14.61999989  47.36000061
H    23.09419632  15.22418213  48.20732498
H    18.38999939  14.98000050  49.54000092
H    17.20000076  15.88000107  44.79000092
H    19.69000053  15.85999966  44.16999817
H    21.94999886  15.15999985  44.88999939
H    20.62000084  14.82999992  48.99000168
H    12.43999958  15.85999966  48.87000275
H    23.45000076  14.85000038  46.52000046
H    22.89999962  13.55000019  47.51999664
S    16.21999931  13.07999992  52.56999969
C    18.79999924  12.75000000  51.59999847
C    17.43999863  12.57999992  51.40999603
C    16.90999985  12.20000076  50.17000198
C    17.79000092  11.89000034  49.16999817
C    19.17000008  11.92000008  49.31000137
C    20.09000015  11.26999950  48.46000290
C    21.42000008  11.28999901  48.69999695
C    21.94000053  11.92999935  49.89999771
C    21.12999916  12.61000061  50.68000031
C    19.71999931  12.48999977  50.52999878
C    15.50000000  12.34000015  50.11000061
C    15.03000069  12.88000011  51.33999634
C    13.63999939  13.09000015  51.52000046
C    23.35000038  11.76000023  50.18000031
H    23.59150314  11.93250275  51.22881699
H    19.15999985  13.05999947  52.57999802
H    17.35000038  11.44999981  48.27999878
H    19.64999962  10.67999935  47.65999603
H    22.04999924  10.48999977  48.33000183
H    21.53000069  13.09999943  51.56000137
H    13.23999977  13.25000000  52.51999664
H    23.72999954  10.75000000  49.94999695
H    24.00000000  12.42000008  49.59999847
S    12.13000107  12.13999939  48.02999878
C     9.47000027  12.79000092  48.76999664
C    10.80000019  12.56000042  49.15000153
C    11.26000023  12.97000027  50.44000244
C    10.36999893  13.45999908  51.30000305
C     8.94999981  13.60999966  50.97000122
C     7.97999954  14.06999969  51.88999939
C     6.65000010  14.19000053  51.46999741
C     6.28000021  14.00000000  50.12000275
C     7.17999983  13.43000031  49.27000046
C     8.52000046  13.27999973  49.66999817
C    12.71000004  12.84000015  50.45000076
C    13.30000019  12.46000099  49.25000000
C    14.65999985  12.27000046  48.97999573
C     4.82999992  14.11000061  49.75999832
H     4.66422033  13.87934971  48.70766068
H     8.94999981  12.56999969  47.83000183
H    10.70000076  13.83999920  52.27000427
H     8.27000046  14.37000084  52.88999939
H     5.86999989  14.27999973  52.22000122
H     6.90999985  12.98999977  48.30999756
H    14.96999931  11.97000027  47.97999954
H     4.46000004  15.10000038  50.04000092
H     4.39000034  13.38000107  50.44000244
