96

S    12.01000023  17.48999977  44.31999969
C     9.35000038  17.89999962  45.06999969
C    10.55999947  17.35999870  45.31999969
C    10.82999992  16.79999924  46.58000183
C     9.86999989  16.69999886  47.61000061
C     8.61999989  17.23999977  47.36999893
C     7.59000015  17.19000053  48.34000015
C     6.21999979  17.56000137  47.95999908
C     5.88999987  18.06999969  46.70999908
C     6.96000004  18.12999916  45.79000092
C     8.27000046  17.72999954  46.04999924
C    12.28000069  16.55999947  46.76000214
C    13.02000046  16.97000122  45.63999939
C    14.35999966  16.75000000  45.50000000
C     4.44999981  18.23999977  46.38999939
H     4.11445284  17.71169281  45.49758911
H     9.15000057  18.53999901  44.22000122
H    10.26000023  16.28000069  48.53000259
H     7.78999996  16.61000061  49.22999954
H     5.42999983  17.20999908  48.62999725
H     6.77999973  18.40999985  44.75999832
H    14.86999989  17.04000092  44.58000183
H     3.88999987  18.02000046  47.30999756
H     4.39000034  19.32999992  46.23000336
S    15.40999985  15.62000084  49.13000107
C    18.09000015  15.34000015  48.50999832
C    16.84999847  15.73999977  48.13999939
C    16.54000092  16.15999985  46.81000137
C    17.56000137  16.40999985  45.90000153
C    18.86000061  15.93000031  46.19999695
C    19.89999962  16.10999870  45.26000214
C    21.17000198  15.65999985  45.58000183
C    21.40000153  15.14999962  46.86999893
C    20.43000031  15.01000023  47.80000305
C    19.09000015  15.46000004  47.55000305
C    15.08999920  16.28000069  46.62000275
C    14.32000065  16.01000023  47.77999878
C    12.98999977  16.11999893  47.87000275
C    22.80999947  14.73000050  47.27000427
H    23.18906784  15.23780823  48.15687561
H    18.15000153  14.88999939  49.50000000
H    17.29999924  16.79999924  44.92000198
H    19.73999977  16.70999908  44.36000061
H    21.98999786  15.73999977  44.87999725
H    20.61000061  14.57999992  48.77999878
H    12.48999977  15.85999966  48.79000092
H    23.52000046  14.88999939  46.44000244
H    22.79000092  13.66000080  47.51999664
S    15.84000015  12.98999977  52.32999802
C    18.50000000  12.71000004  51.36000061
C    17.19000053  12.53999901  51.18999863
C    16.64999962  12.22000027  49.91000366
C    17.51000023  11.79999924  48.96999741
C    18.90999985  11.87999916  49.08000183
C    19.78999901  11.28000069  48.22000122
C    21.11000061  11.14999962  48.46000290
C    21.65999985  11.72000027  49.59000015
C    20.79999924  12.35999966  50.54999924
C    19.43000031  12.35999966  50.27000046
C    15.21999931  12.51000023  49.80999756
C    14.70000076  13.00000000  51.00000000
C    13.31999969  13.22999954  51.14999771
C    23.09999847  11.35000038  50.02999878
H    23.30327034  11.66542149  51.05337143
H    18.82999992  13.07000065  52.32999802
H    16.95000076  11.26999950  48.20000076
H    19.45000076  10.77000046  47.31999969
H    21.76000214  10.59999943  47.77999878
H    21.09999847  12.56000042  51.58000183
H    13.02000046  13.59000015  52.12999725
H    23.26000023  10.27999973  49.85000229
H    23.85000038  11.84000015  49.38999939
S    11.92999935  12.30000019  47.52999878
C     9.30999947  12.89999962  48.26000214
C    10.62999916  12.88000011  48.57999802
C    11.10999966  13.28999996  49.86999893
C    10.26000023  13.71999931  50.86999893
C     8.86999989  13.69999981  50.58000183
C     7.90000010  14.07999992  51.52000046
C     6.61000013  14.07999992  51.18999863
C     6.17999983  13.75000000  49.88999939
C     7.04999971  13.30000019  48.94000244
C     8.43000031  13.27000046  49.23999786
C    12.48000050  13.09000015  50.04000092
C    13.09000015  12.64000034  48.80000305
C    14.44000053  12.34000015  48.72000122
C     4.75000000  14.04999924  49.52000046
H     4.47206354  13.66235161  48.53990936
H     8.89999962  12.76999950  47.25999832
H    10.59999943  13.81000042  51.90000153
H     8.27999973  14.60999966  52.38999939
H     5.86999989  14.37999916  51.93000031
H     6.76999998  12.97999954  47.94000244
H    14.80999947  11.95000076  47.77000046
H     4.56999969  15.13000011  49.51000214
H     4.07999992  13.64999962  50.28999710
