96

S    12.56999969  17.13000107  44.27999878
C     9.85000038  17.50000000  45.06000137
C    11.06999969  16.97000122  45.27999878
C    11.32999992  16.31000137  46.53999710
C    10.27999973  16.04999924  47.42000198
C     8.98999977  16.56999969  47.18000031
C     7.86999989  16.31999969  48.04999924
C     6.63999987  16.87999916  47.77999878
C     6.38999987  17.56999969  46.56999969
C     7.44000006  17.72999954  45.68999863
C     8.78999996  17.34000015  45.97999954
C    12.69999981  16.22999954  46.77999878
C    13.45000076  16.67000008  45.61999893
C    14.81999969  16.62999916  45.59999847
C     5.05999994  18.22999954  46.20999908
H     4.69267511  17.98276138  45.21398544
H     9.63000011  18.22999954  44.27999878
H    10.44000053  15.42000008  48.29000092
H     8.03999996  15.72999954  48.95000076
H     5.84000015  16.67000008  48.47999954
H     7.31999969  18.26000023  44.75000000
H    15.39000034  16.77999878  44.68999863
H     4.33999968  17.97999954  46.98999786
H     5.22000027  19.30999947  46.37000275
S    15.82999992  15.67000008  49.34999847
C    18.51000023  15.26000023  48.76999664
C    17.25000000  15.59999943  48.31999969
C    16.87999916  15.88999939  46.97000122
C    17.86000061  15.85999966  46.04000092
C    19.12999916  15.34000015  46.38000107
C    20.13999939  15.14000034  45.38000107
C    21.40999985  14.77000046  45.68999863
C    21.75000000  14.57999992  47.02999878
C    20.82999992  14.68999958  48.02999878
C    19.47999954  15.01999950  47.71999741
C    15.50000000  16.27000046  46.77000046
C    14.82999992  15.90999985  47.91999817
C    13.45999908  15.73999977  47.91999817
C    23.16999817  14.14999962  47.34000397
H    23.54127502  14.63335991  48.24367142
H    18.78999901  15.17000008  49.81999969
H    17.59000015  16.17000008  45.04000092
H    19.84000015  15.39999962  44.36999893
H    22.20000076  14.70999908  44.93999863
H    21.09000015  14.52000046  49.06999969
H    12.89000034  15.42000008  48.79000092
H    23.78999901  14.40999985  46.47999573
H    23.25000000  13.05999947  47.37999725
S    16.01000023  13.14000034  52.06999969
C    18.68999863  12.64999962  51.10000229
C    17.31999969  12.57999992  50.93000031
C    16.72000122  12.13000107  49.68999863
C    17.60000038  11.72000027  48.70999908
C    19.02000046  11.69999981  48.87000275
C    19.93999863  11.06999969  47.95999908
C    21.25999832  10.81999969  48.22999954
C    21.88999939  11.39000034  49.40000153
C    21.01000023  11.97000027  50.31999969
C    19.56999969  12.17000008  50.08999634
C    15.29999924  12.38999939  49.61000061
C    14.81999969  12.76999950  50.86999893
C    13.48000050  13.03999996  51.09000397
C    23.35000038  11.14999962  49.68999863
H    23.59365463  11.43542576  50.71335602
H    19.10000038  13.15999985  51.97000122
H    17.14999962  11.28000069  47.83000183
H    19.57999992  10.65000057  47.02000046
H    21.86000061  10.19000053  47.57999802
H    21.37000084  12.25000000  51.31000137
H    13.14000034  13.52000046  52.00000000
H    23.44000053  10.06999969  49.47999954
H    23.97999954  11.75000000  49.02999878
S    11.89000034  12.13999939  47.49000168
C     9.22000027  12.63000011  48.34000015
C    10.55999947  12.63000011  48.61999893
C    11.14999962  12.96000004  49.93999863
C    10.21000004  13.43999958  50.86000061
C     8.82000065  13.53999996  50.56999969
C     7.90999985  14.29999924  51.33999634
C     6.57999992  14.46000004  51.04999924
C     6.09000015  13.78000069  49.79000092
C     6.96000004  13.02999973  49.02000046
C     8.34000015  12.97999954  49.31000137
C    12.61000061  12.82999992  50.00000000
C    13.10999966  12.38999939  48.73000336
C    14.47999954  12.23000050  48.54999924
C     4.63000011  13.90999985  49.43999863
H     4.57390070  13.65755177  48.38111877
H     8.85000038  12.27000046  47.37999725
H    10.64000034  13.85000038  51.77000046
H     8.31999969  14.88000011  52.16999817
H     5.84000015  14.85000038  51.73999786
H     6.57000017  12.67000008  48.06999969
H    14.86999989  11.82000065  47.62000275
H     4.26999998  14.93999958  49.56999969
H     4.07000017  13.19000053  50.06000137
