96

S    11.97000027  16.75000000  44.20000076
C     9.48999977  17.42000008  45.20000076
C    10.71000004  16.80999947  45.40000153
C    11.06999969  16.36000061  46.66999817
C    10.14000034  16.34000015  47.65999603
C     8.80999947  16.82999992  47.43000031
C     7.77999973  16.65999985  48.47000122
C     6.50000000  17.05999947  48.18999863
C     6.15000010  17.60000038  46.90000153
C     7.16000032  17.82999992  45.93000031
C     8.50000000  17.43999863  46.22000122
C    12.50000000  16.04999924  46.70000076
C    13.14000034  16.28000069  45.47000122
C    14.52999973  16.32999992  45.43000031
C     4.67000008  17.71000099  46.51000214
H     4.55049419  17.40772057  45.46959686
H     9.36999989  17.94999886  44.26000214
H    10.34000015  15.77999973  48.56999969
H     8.07999992  16.13000107  49.36999893
H     5.68000031  16.90999985  48.88999939
H     6.90999985  18.23999977  44.94999695
H    14.98999977  16.56999969  44.47999954
H     4.13000011  16.98999977  47.12999725
H     4.32999992  18.71999931  46.76000214
S    15.65000057  15.39999962  49.13999939
C    18.31999969  15.14000034  48.47999954
C    17.06999969  15.46000004  48.09999847
C    16.72000122  15.77999973  46.72000122
C    17.77000046  15.92000008  45.77999878
C    19.02000046  15.52000046  46.13999939
C    20.02000046  15.47999954  45.13999939
C    21.34000015  15.29999924  45.45999908
C    21.65999985  15.06000042  46.81999969
C    20.73999786  15.03000069  47.81999969
C    19.34000015  15.27999973  47.49000168
C    15.29999924  16.02000046  46.59999847
C    14.60999966  15.72999954  47.77999878
C    13.20000076  15.71000004  47.93000031
C    23.09000015  14.75000000  47.11999893
H    23.32204056  14.89766312  48.17472839
H    18.48999977  14.72000027  49.45999908
H    17.47999954  16.43000031  44.86999893
H    19.72999954  15.69000053  44.10999680
H    22.06999969  15.19000053  44.65999985
H    20.90999985  14.73999977  48.86000061
H    12.74000072  15.40999985  48.86000061
H    23.74000168  15.42000008  46.53999710
H    23.23999786  13.73999977  46.72999954
S    12.05000019  16.97000122  50.84999847
C     9.25000000  17.11000061  51.53999710
C    10.53999996  16.76000023  51.86999893
C    10.90000057  16.39000130  53.22999954
C     9.86999989  16.29999924  54.12000275
C     8.56999969  16.70999908  53.88000107
C     7.55999994  16.70999908  54.85000229
C     6.28999996  17.20999908  54.54999924
C     5.98000002  17.59000015  53.23999786
C     7.00000000  17.61000061  52.32999802
C     8.27999973  17.13999939  52.55000305
C    12.35999966  16.10000038  53.33000183
C    13.09000015  16.45000076  52.21000290
C    14.42999935  16.42000008  52.12999725
C     4.59000015  18.22000122  53.04999924
H     4.16930342  17.61999130  52.24309158
H     8.92000008  17.53000069  50.59000015
H    10.15999985  15.77999973  55.04000092
H     7.69999981  16.23999977  55.81999969
H     5.56999969  17.21999931  55.35999680
H     6.77999973  17.97000122  51.32999802
H    14.98999977  16.53000069  51.20999908
H     3.98000002  18.06999969  53.95000076
H     4.63000011  19.27999878  52.78999710
S    15.54999924  15.64000034  55.87999725
C    18.13999939  15.06999969  55.01999664
C    16.90000153  15.69000053  54.79999924
C    16.52000046  16.15999985  53.50000000
C    17.46000099  16.21000099  52.54000092
C    18.78999901  15.67999935  52.72999573
C    19.84000015  15.70000076  51.75000000
C    21.14000130  15.19999981  51.98999786
C    21.45000076  14.75000000  53.23999786
C    20.53999901  14.73999977  54.18000031
C    19.15999985  15.18000031  54.05000305
C    15.08999920  16.17000008  53.36000061
C    14.40000057  15.85000038  54.54999924
C    13.03999996  15.76000023  54.54999924
C    22.86999893  14.42999935  53.69999695
H    23.15808296  14.98456383  54.59306335
H    18.32999992  14.52999973  55.93999863
H    17.26000023  16.44000053  51.49000168
H    19.68000031  16.13999939  50.77000046
H    21.94000053  15.34000015  51.25999832
H    20.76000023  14.50000000  55.20999908
H    12.38999939  15.64000034  55.40999985
H    23.54999924  14.55999947  52.84999847
H    22.86000061  13.34000015  53.88000107
