96

S    12.20999908  17.10000038  44.41999817
C     9.43000031  17.30999947  45.06000137
C    10.70000076  16.90999985  45.37000275
C    11.05000019  16.45000076  46.68000031
C    10.00000000  16.42000008  47.67000198
C     8.71999931  16.87000084  47.43999863
C     7.60999966  16.84999847  48.37999725
C     6.32999992  17.26000023  48.06000137
C     6.09000015  17.90999985  46.81999969
C     7.11000013  18.01000023  45.94999695
C     8.43999958  17.45000076  46.14999771
C    12.46000099  16.36999893  46.93999863
C    13.22000027  16.72999954  45.79999924
C    14.60999966  16.64999962  45.76000214
C     4.65999985  18.38000107  46.36000061
H     4.32035351  17.87760544  45.45427322
H     9.17000008  17.79999924  44.12000275
H    10.19000053  16.01000023  48.64999771
H     7.88000011  16.42000008  49.34000015
H     5.51999998  17.17000008  48.76999664
H     6.90999985  18.30999947  44.92000198
H    15.22999954  17.02999878  44.95999908
H     4.00000000  18.12999916  47.18999863
H     4.69000006  19.47000122  46.18999863
S    15.51000023  15.52000046  49.41999817
C    18.25000000  15.18000031  48.80000305
C    16.98999977  15.62999916  48.46000290
C    16.68000031  16.04999924  47.19999695
C    17.64999962  16.10999870  46.18000031
C    18.96000099  15.65999985  46.46999741
C    19.89999962  15.71000004  45.45000076
C    21.18999863  15.21999931  45.63999939
C    21.55999947  14.88999939  47.02000046
C    20.59999847  14.78000069  47.95999908
C    19.23999977  15.19000053  47.76000214
C    15.26999950  16.29999924  46.95000076
C    14.52999973  15.95999908  48.08000183
C    13.10999966  16.00000000  48.06000137
C    22.92000008  14.35999966  47.36000061
H    23.34245872  14.93482208  48.18414307
H    18.43000031  14.65000057  49.72999954
H    17.39999962  16.43000031  45.17000198
H    19.59000015  16.04999924  44.47000122
H    21.86000061  15.24000072  44.78000259
H    20.89999962  14.19000053  48.82999802
H    12.48999977  15.57999992  48.83999634
H    23.48999977  14.52000046  46.44000244
H    22.65999985  13.30000019  47.47000122
S    11.84999943  17.40999985  51.00000000
C     9.15999985  17.94000053  51.73999786
C    10.39999962  17.53999901  52.05999756
C    10.67000008  16.97000122  53.30999756
C     9.70000076  16.90999985  54.31999969
C     8.36000061  17.43999863  54.08000183
C     7.23000002  17.28999901  54.94999695
C     5.98999977  17.61999893  54.54999924
C     5.75000000  18.11000061  53.22000122
C     6.78999996  18.19000053  52.29999924
C     8.11999989  17.89999962  52.74000168
C    12.05999947  16.67000008  53.47000122
C    12.84000015  16.80999947  52.29999924
C    14.25000000  16.64999962  52.30999756
C     4.38000011  18.42000008  52.84000015
H     4.19029140  18.06166077  51.82821655
H     8.80000019  18.25000000  50.76000214
H    10.00000000  16.40999985  55.22999573
H     7.48000050  16.90999985  55.93999863
H     5.17000008  17.64999962  55.25000000
H     6.63999987  18.35000038  51.23000336
H    14.67000008  16.90999985  51.35000229
H     3.68999982  17.89999962  53.52000427
H     4.11999989  19.47000122  53.02000046
S    15.11999989  15.64000034  56.00000000
C    17.80999947  15.31999969  55.35999680
C    16.55999947  15.72000027  54.98000336
C    16.31999969  16.28999901  53.70999908
C    17.39999962  16.44000053  52.80000305
C    18.71999931  16.10999870  53.22000122
C    19.79999924  16.13000107  52.30999756
C    21.04000092  15.65000057  52.62000275
C    21.25999832  15.11999989  53.92000198
C    20.23999977  14.98999977  54.79000092
C    18.94000053  15.55999947  54.52999878
C    14.88999939  16.36000061  53.47000122
C    14.14000034  16.13999939  54.61999893
C    12.76000023  16.28000069  54.62999725
C    22.63999939  14.60000038  54.22999954
H    22.97411728  15.02460670  55.17666626
H    17.97000122  14.80999947  56.30000305
H    17.09000015  16.70999908  51.79999924
H    19.47999954  16.40999985  51.31000137
H    21.81999969  15.65999985  51.86999893
H    20.43000031  14.44000053  55.70000076
H    12.06999969  16.00000000  55.41999817
H    23.36999893  14.91000080  53.47000122
H    22.77000046  13.52000046  54.09999847
