96

S    12.15000057  17.15999985  44.27999878
C     9.48999977  17.39999962  45.14999771
C    10.76000023  17.04000092  45.37000275
C    11.18999958  16.50000000  46.66999817
C    10.18000031  16.27000046  47.61000061
C     8.78999996  16.65999985  47.38999939
C     7.71000004  16.61999893  48.37999725
C     6.38000011  16.92000008  48.06999969
C     6.09000015  17.35999870  46.70999908
C     7.07999992  17.56000137  45.80999756
C     8.42000008  17.22999954  46.07999802
C    12.61999989  16.34000015  46.72000122
C    13.30999947  16.68000031  45.56999969
C    14.70000076  16.54999924  45.45999908
C     4.63999987  17.69000053  46.36000061
H     4.39673185  17.23208427  45.40123367
H     9.27999973  17.86000061  44.19000244
H    10.36000061  15.88000107  48.60000229
H     7.86000013  16.13000107  49.34000015
H     5.63000011  16.87000084  48.85000229
H     6.89000034  18.02999878  44.85000229
H    15.21999931  16.77999878  44.54000092
H     3.94000006  17.43999863  47.15999985
H     4.53999996  18.77000046  46.18999863
S    15.75000000  15.32999992  49.06000137
C    18.27000046  14.68999958  48.37999725
C    17.07999992  15.22999954  48.02999878
C    16.79999924  15.72000027  46.72000122
C    17.81999969  15.76000023  45.76000214
C    19.09000015  15.22999954  46.06999969
C    20.15999985  15.44999981  45.17000198
C    21.45999908  15.15999985  45.59999847
C    21.73999977  14.67000008  46.90999985
C    20.66999817  14.37000084  47.76000214
C    19.30999947  14.65000057  47.41000366
C    15.39999962  16.06999969  46.59000015
C    14.70000076  15.84000015  47.77999878
C    13.28999996  15.81999969  47.84999847
C    23.21000099  14.32000065  47.30999756
H    23.53307533  14.83270359  48.21601105
H    18.38999939  14.29999924  49.38999939
H    17.65999985  16.09000015  44.72999954
H    19.96999931  15.95000076  44.22999954
H    22.11999893  15.32999992  44.75999832
H    20.88000107  14.02999973  48.76999664
H    12.76000023  15.42000008  48.70999908
H    23.88000107  14.50000000  46.45999908
H    23.22000122  13.22999954  47.45999908
S    11.98999977  17.20000076  50.77000046
C     9.35000038  17.54999924  51.36000061
C    10.59000015  17.06999969  51.75000000
C    10.85000038  16.61999893  53.06000137
C     9.82999992  16.51000023  53.97999573
C     8.56000042  17.02999878  53.61999893
C     7.46999979  17.01000023  54.56999969
C     6.24000025  17.50000000  54.31000137
C     5.97000027  18.02000046  53.02000046
C     6.90999985  18.02000046  52.02000046
C     8.27000046  17.53999901  52.29999924
C    12.28000069  16.35000038  53.26000214
C    12.98999977  16.61999893  52.09000015
C    14.37999916  16.72999954  52.06999969
C     4.61000013  18.50000000  52.75000000
H     4.19377851  17.89330482  51.94577408
H     9.15999985  17.97000122  50.37000275
H    10.08999920  16.10000038  54.94999695
H     7.71000004  16.69999886  55.58000183
H     5.52999973  17.48999977  55.13000107
H     6.71000004  18.43000031  51.04000092
H    14.88999939  16.95000076  51.13999939
H     3.96000004  18.37000084  53.61999893
H     4.73000002  19.56999969  52.54000092
S    15.32999992  15.98999977  55.86000061
C    18.12999916  15.76000023  55.28999710
C    16.82999992  16.02000046  54.88999939
C    16.54999924  16.38000107  53.53000259
C    17.56999969  16.35000038  52.61000061
C    18.93000031  16.11999893  52.98999786
C    19.95000076  16.02000046  52.02000046
C    21.11999893  15.34999943  52.29000092
C    21.37000084  15.07999992  53.66000366
C    20.52000046  15.34999943  54.72000122
C    19.22999954  15.71000004  54.29999924
C    15.11000061  16.42000008  53.26000214
C    14.40999985  16.13999939  54.43999863
C    13.04999924  16.09000015  54.38999939
C    22.76000023  14.55999947  54.01000214
H    22.98384857  15.07990551  54.94150162
H    18.31999969  15.57000065  56.35000229
H    17.29999924  16.46000099  51.56000137
H    19.67000008  16.29999924  51.00999832
H    21.77999878  15.01000023  51.49000168
H    20.85000038  15.15999985  55.73999786
H    12.46000099  15.95000076  55.28999710
H    23.46999931  14.94999981  53.27999878
H    22.82999992  13.47000027  54.09999847
