96

S    11.85999966  16.87999916  44.20000076
C     9.26999950  17.32999992  44.93000031
C    10.51000023  17.05000114  45.34000015
C    10.80999947  16.63999939  46.65999985
C     9.86999989  16.57999992  47.68000031
C     8.52999973  16.87999916  47.27000427
C     7.46000004  17.05999947  48.20000076
C     6.21999979  17.43000031  47.72999573
C     6.01999998  17.79999924  46.39999771
C     7.04999971  17.85000038  45.50000000
C     8.30999947  17.40999985  45.91999817
C    12.20000076  16.27000046  46.70999908
C    12.89999962  16.47999954  45.54999924
C    14.27000046  16.39000130  45.41999817
C     4.65999985  18.18000031  46.09000397
H     4.35845041  17.60562134  45.21407318
H     9.11999989  17.64999962  43.90999603
H    10.10000038  16.28999901  48.69999695
H     7.75000000  17.05000114  49.25000000
H     5.53999996  17.63000107  48.55999756
H     6.94000006  18.15999985  44.47000122
H    14.86999989  16.43000031  44.52000046
H     3.98000002  17.98999977  46.93000031
H     4.55999994  19.22999954  45.79000092
S    15.39000034  15.26999950  49.02999878
C    18.18000031  15.11000061  48.31999969
C    16.82999992  15.31000042  47.94000244
C    16.39999962  15.73999977  46.63999939
C    17.46000099  15.76000023  45.70999908
C    18.81999969  15.40999985  46.00000000
C    19.90999985  15.52999973  45.05000305
C    21.18999863  15.01999950  45.31999969
C    21.47999954  14.63999939  46.66999817
C    20.52000046  14.75000000  47.64999771
C    19.17000008  15.08999920  47.30999756
C    14.93999958  15.95999908  46.51000214
C    14.27999973  15.76000023  47.71999741
C    12.93000031  15.92000008  47.85999680
C    22.90999985  14.25000000  47.01000214
H    23.30803680  14.66936207  47.93401718
H    18.39999962  14.78000069  49.34000015
H    17.19000053  16.07999992  44.69999695
H    19.84000015  16.09000015  44.12000275
H    22.06000137  15.11000061  44.68000031
H    20.79999924  14.67000008  48.69999695
H    12.35000038  15.62999916  48.72000122
H    23.52999878  14.55999947  46.16000366
H    22.95000076  13.15999985  47.08000183
S    16.17000008  12.76999950  52.57999802
C    18.71999931  12.13000107  51.68000031
C    17.38000107  12.05000019  51.49000168
C    16.81999969  11.71000004  50.19000244
C    17.69000053  11.40999985  49.16999817
C    19.06999969  11.35000038  49.34000015
C    20.10000038  10.97000027  48.39000320
C    21.44000053  11.00000000  48.62999725
C    21.87999916  11.28999901  50.00999832
C    20.97999954  11.59999943  50.94999695
C    19.55999947  11.72999954  50.68000031
C    15.44999981  12.05999947  50.01999664
C    14.92000008  12.71999931  51.19999695
C    13.67000008  13.25000000  51.12999725
C    23.29000092  10.93999958  50.33000183
H    23.54493141  11.45714188  51.25502777
H    19.19999886  12.56000042  52.56000137
H    17.27000046  11.07999992  48.22999954
H    19.77000046  10.62000084  47.41000366
H    22.15999985  10.59000015  47.93000031
H    21.31999969  11.72000027  51.97999954
H    13.27999973  13.60999966  52.08000183
H    23.26999855   9.88000011  50.59999847
H    23.90999985  11.05999947  49.43999863
S    12.10000038  12.42000008  47.61000061
C     9.50000000  12.84000015  48.46000290
C    10.86999989  12.79999924  48.73000336
C    11.39000034  13.17999935  49.99000168
C    10.50000000  13.48999977  51.04999924
C     9.06999969  13.48999977  50.83000183
C     8.21000004  14.06000042  51.76000214
C     6.88000011  14.14000034  51.43000031
C     6.34999990  13.76999950  50.11000061
C     7.18999958  13.25000000  49.20999908
C     8.61999989  13.15000057  49.54000092
C    12.84000015  13.05999947  50.04000092
C    13.32999992  12.53000069  48.89999771
C    14.63000107  11.90999985  48.89999771
C     5.00000000  14.17000008  49.69999695
H     4.76992798  13.68759155  48.75002289
H     9.07999992  12.67000008  47.47000122
H    10.86999989  13.85000038  52.01000214
H     8.53999996  14.21000004  52.78999710
H     6.19999981  14.68999958  52.08000183
H     6.84000015  13.26000023  48.18000031
H    15.13000011  11.56999969  48.00000000
H     4.82999992  15.25000000  49.61000061
H     4.26999998  13.88000011  50.45999908
