96

S    12.18999958  17.01000023  44.06000137
C     9.51000023  17.28000069  44.85000229
C    10.76000023  16.87000084  45.08999634
C    11.16000080  16.36999893  46.39999771
C    10.17000008  16.39000130  47.36999893
C     8.78999996  16.76000023  47.09999847
C     7.77999973  16.84999847  48.13999939
C     6.47000027  17.20999908  47.84000015
C     6.17999983  17.53999901  46.46999741
C     7.14999962  17.59000015  45.54000092
C     8.48999977  17.22999954  45.80999756
C    12.51999950  16.01000023  46.45000076
C    13.25000000  16.40999985  45.30000305
C    14.60999966  16.36999893  45.20000076
C     4.85000038  18.12000084  46.05999756
H     4.44471788  17.50508881  45.25642395
H     9.22999954  17.68000031  43.88000107
H    10.34000015  16.10000038  48.40999985
H     8.07999992  16.72000122  49.18000031
H     5.65000010  17.20000076  48.54999924
H     6.93000031  18.02000046  44.56999969
H    15.01000023  16.63999939  44.22999954
H     4.21000004  18.04000092  46.95000076
H     4.96000004  19.15999985  45.73999786
S    15.82999992  15.21000004  48.80000305
C    18.45000076  14.78999996  48.06000137
C    17.15999985  15.26999950  47.69000244
C    16.82999992  15.69000053  46.39999771
C    17.85000038  15.98999977  45.54999924
C    19.19000053  15.67999935  45.86999893
C    20.35000038  15.90999985  45.00999832
C    21.55999947  15.52999973  45.43000031
C    21.83000183  14.80999947  46.72000122
C    20.79999924  14.44000053  47.43999863
C    19.52999878  14.93999958  47.11999893
C    15.34999943  15.86999989  46.25999832
C    14.70999908  15.62000084  47.47000122
C    13.31999969  15.65000057  47.55000305
C    23.22999954  14.34999943  47.14000320
H    23.68776512  14.99087048  47.89355087
H    18.60000038  14.29999924  49.02000046
H    17.67000008  16.15999985  44.48999786
H    20.29000092  16.38000107  44.02999878
H    22.46000099  15.59000015  44.81999969
H    20.93000031  13.76999950  48.27999878
H    12.88000011  15.46000004  48.52000427
H    23.84000015  14.37000084  46.22000122
H    23.26999855  13.27999973  47.38999939
S    11.69999981  16.94000053  50.79999924
C     9.17000008  17.46999931  51.72000122
C    10.39999962  16.90000153  51.97000122
C    10.72000027  16.31999969  53.25000000
C     9.81000042  16.36000061  54.33000183
C     8.52999973  16.93000031  53.99000168
C     7.48000050  16.77999878  54.85000229
C     6.21999979  17.19000053  54.54999924
C     5.84999990  17.77000046  53.27999878
C     6.89000034  17.80999947  52.32999802
C     8.25000000  17.53999901  52.70999908
C    12.07999992  16.02000046  53.29000092
C    12.72999954  16.26000023  52.04999924
C    14.18000031  16.17000008  52.00000000
C     4.42999983  18.20999908  52.90999985
H     4.08670092  17.61764145  52.06185150
H     8.97999954  17.82999992  50.70999908
H     9.92999935  16.03000069  55.35999680
H     7.53999996  16.39000130  55.86000061
H     5.42999983  16.97999954  55.26000214
H     6.61000013  18.13999939  51.32999802
H    14.65000057  16.36999893  51.04000092
H     3.79999995  18.29000092  53.80000305
H     4.65000010  19.23999977  52.62000275
S    15.25000000  15.85000038  55.72999954
C    17.90999985  15.29999924  55.14999771
C    16.68000031  15.55999947  54.72000122
C    16.36000061  15.78999996  53.36000061
C    17.34000015  16.00000000  52.49000168
C    18.68999863  15.70000076  52.87000275
C    19.70999908  15.64000034  51.93999863
C    20.98999977  15.17000008  52.22999954
C    21.28999901  14.84000015  53.62999725
C    20.29999924  14.85999966  54.56999969
C    18.97999954  15.29000092  54.23999786
C    14.92000008  15.92000008  53.18000031
C    14.18000031  15.81999969  54.40999985
C    12.77999973  15.77999973  54.47999954
C    22.70000076  14.40999985  53.88999939
H    23.18353081  14.87971592  54.74654388
H    18.18000031  14.93000031  56.13999939
H    17.20000076  16.42000008  51.50000000
H    19.36000061  16.01000023  50.97999954
H    21.81999969  15.05000019  51.55000305
H    20.45000076  14.42000008  55.54999924
H    12.36999989  15.72000027  55.48999786
H    23.29999924  14.73999977  53.02999878
H    22.67000008  13.31999969  54.00000000
