96

S    12.17000008  16.77999878  44.52000046
C     9.51000023  17.28999901  45.27000046
C    10.77999973  16.93000031  45.59000015
C    11.10999966  16.51000023  46.91999817
C    10.18000031  16.70999908  47.85999680
C     8.82000065  17.11000061  47.56999969
C     7.90000010  17.23999977  48.59000397
C     6.61999989  17.70000076  48.27999878
C     6.23000050  17.92000008  46.90000153
C     7.16000032  17.71000099  45.93000031
C     8.52999973  17.38999939  46.22000122
C    12.50000000  16.31000137  47.04999924
C    13.19000053  16.42000008  45.84000015
C    14.53999996  16.31999969  45.73999786
C     4.81999969  18.34000015  46.51000214
H     4.39207315  17.56131363  45.87863541
H     9.35000038  17.63000107  44.25000000
H    10.47999954  16.43000031  48.86000061
H     8.23999977  16.92000008  49.56999969
H     5.92000008  17.87999916  49.09000015
H     6.84999990  18.06999969  44.95999908
H    15.01000023  16.40999985  44.77000427
H     4.09999990  18.55999947  47.29999924
H     5.09000015  19.29000092  46.02000427
S    15.76000023  15.62999916  49.47999954
C    18.40999985  15.19999981  48.66000366
C    17.12000084  15.48999977  48.36999893
C    16.70999908  15.85000038  46.97999954
C    17.65999985  15.93999958  46.00000000
C    19.04000092  15.57999992  46.25999832
C    20.00999832  15.50000000  45.28999710
C    21.30000114  15.14000034  45.61000061
C    21.70000076  14.82999992  46.93999863
C    20.76999855  14.78000069  47.91999817
C    19.42000008  15.14999962  47.63999939
C    15.25000000  15.95999908  46.84999847
C    14.60000038  15.93000031  48.16999817
C    13.22999954  16.21999931  48.27000046
C    23.18000031  14.40000057  47.23999786
H    23.41034317  14.72391987  48.25494385
H    18.63000107  14.82999992  49.66999817
H    17.43999863  16.18000031  44.95999908
H    19.76000023  15.95000076  44.33000183
H    22.06999969  15.15999985  44.84000397
H    20.96999931  14.52000046  48.95999908
H    12.74000072  16.27000046  49.23999786
H    23.85999870  14.70000076  46.44000244
H    23.23999786  13.30000019  47.22000122
S    11.97000027  17.63000107  51.06999969
C     9.32999992  18.02999878  51.83000183
C    10.59999943  17.53999901  52.14000320
C    10.98000050  17.04000092  53.44999695
C     9.96000004  16.88999939  54.36000061
C     8.69000053  17.50000000  54.09999847
C     7.76000023  17.67000008  55.18000031
C     6.52999973  18.19000053  54.92000198
C     6.14000034  18.53000069  53.59000397
C     7.11999989  18.47999954  52.54000092
C     8.39999962  17.98999977  52.81000137
C    12.43999958  16.87000084  53.56999969
C    13.09000015  17.28000069  52.42000198
C    14.47999954  17.10000038  52.27000427
C     4.69999981  18.79999924  53.18000031
H     4.40107155  18.22349358  52.30456543
H     9.11000061  18.60999870  50.93999863
H    10.08999920  16.47999954  55.35999680
H     7.95000029  17.26000023  56.17000198
H     5.78000021  18.12999916  55.70000076
H     6.81999969  18.78999901  51.53999710
H    15.00000000  17.21999931  51.31999969
H     4.05000019  18.38000107  53.95000076
H     4.48000002  19.86999893  53.06000137
S    15.67000008  16.03000069  55.90000153
C    18.25000000  15.50000000  55.15999603
C    17.05999947  15.95999908  54.84000397
C    16.62999916  16.32999992  53.48999786
C    17.65999985  16.36999893  52.52999878
C    18.94000053  15.92000008  52.88000107
C    20.06999969  15.95999908  51.93999863
C    21.27000046  15.36000061  52.19999695
C    21.51000023  14.81999969  53.47000122
C    20.55999947  14.85999966  54.45999908
C    19.27000046  15.44000053  54.20000076
C    15.21000004  16.61000061  53.36000061
C    14.55000019  16.31000137  54.54000092
C    13.17000008  16.43000031  54.72000122
C    22.96999931  14.51000023  53.82999802
H    23.22223854  14.76223850  54.85997391
H    18.45000076  15.05000019  56.12999725
H    17.45000076  16.69999886  51.52000046
H    19.96999931  16.48999977  51.00000000
H    22.18000031  15.57999992  51.65000153
H    20.75000000  14.42000008  55.44000244
H    12.71999931  16.07999992  55.63999939
H    23.52999878  15.11999989  53.11000061
H    23.19000053  13.43999958  53.73000336
