96

S    12.39999962  17.02999878  44.48999786
C     9.61000061  17.36999893  45.21999741
C    10.95999908  17.02999878  45.54000092
C    11.31000042  16.45000076  46.81999969
C    10.34999943  16.21000099  47.76000214
C     9.01000023  16.50000000  47.44999695
C     7.95000029  16.38000107  48.46000290
C     6.61999989  16.82999992  48.22000122
C     6.28999996  17.39999962  46.98999786
C     7.30000019  17.59000015  46.04000092
C     8.60999966  17.10000038  46.14999771
C    12.72999954  16.31000137  47.01000214
C    13.48000050  16.61000061  45.86999893
C    14.89999962  16.46000099  45.79999924
C     4.86999989  17.78000069  46.60999680
H     4.63630486  17.53900337  45.57297897
H     9.44000053  17.89999962  44.29000092
H    10.54999924  15.90999985  48.79000092
H     8.22000027  15.97000027  49.43000031
H     5.88000011  16.77000046  49.01000214
H     7.05999947  18.12000084  45.12000275
H    15.44000053  16.69999886  44.87999725
H     4.19999981  17.20999908  47.25999832
H     4.61999989  18.84000015  46.79999924
S    15.98000050  15.52000046  49.52000046
C    18.63000107  15.19999981  48.74000168
C    17.36999893  15.51000023  48.43000031
C    17.02000046  15.98000050  47.09999847
C    18.00000000  16.18999863  46.11000061
C    19.34000015  15.73999977  46.40999603
C    20.36999893  15.72000027  45.48999786
C    21.65999985  15.26999950  45.72999954
C    21.88999939  14.81999969  47.08000183
C    20.94000053  14.84000015  48.06000137
C    19.62000084  15.26999950  47.76000214
C    15.55999947  16.15999985  47.01000214
C    14.86999989  16.01000023  48.18000031
C    13.40999985  16.03999901  48.20000076
C    23.26999855  14.30999947  47.43999863
H    23.60635948  14.80332851  48.35191345
H    18.88000107  14.70000076  49.66999817
H    17.89999962  16.69000053  45.14999771
H    20.07999802  15.95999908  44.47000122
H    22.46000099  15.21000004  45.00000000
H    21.17000198  14.55999947  49.08000183
H    12.89999962  15.71000004  49.10999680
H    24.00000000  14.55999947  46.65999985
H    23.16999817  13.21000004  47.45999908
S    15.93999958  12.41000080  51.98999786
C    18.57999992  12.07999992  51.18999863
C    17.20999908  12.03999996  50.86000061
C    16.77000046  12.02000046  49.50000000
C    17.76000023  11.69999981  48.50999832
C    19.13999939  11.57999992  48.86000061
C    20.13000107  11.13999939  47.91999817
C    21.47000122  11.06999969  48.29999924
C    21.88999939  11.42000008  49.59999847
C    20.95000076  11.87000084  50.50000000
C    19.59000015  11.80999947  50.20000076
C    15.31999969  12.23000050  49.40999985
C    14.70000076  12.43999958  50.72000122
C    13.42000008  12.84999943  50.84999847
C    23.36999893  11.30000019  50.07999802
H    23.65087891  11.60828209  51.08705902
H    19.00000000  12.39999962  52.14000320
H    17.43000031  11.47999954  47.50000000
H    19.77000046  10.67999935  47.00000000
H    22.13000107  10.55999947  47.61000061
H    21.25999832  12.38999939  51.40999603
H    13.00000000  13.09999943  51.81999969
H    23.78000069  10.29999924  49.86999893
H    23.88000107  11.97000027  49.38999939
S    11.82999992  12.38000011  47.29999924
C     9.31999969  12.93000031  48.23999786
C    10.62000084  12.86000061  48.48999786
C    11.19999981  13.22999954  49.78000259
C    10.32999992  13.68999958  50.76000214
C     8.93999958  13.73999977  50.43000031
C     8.06999969  14.11999893  51.45000076
C     6.71000004  14.22000027  51.23000336
C     6.23000050  13.81000042  49.92000198
C     7.09999990  13.35999966  48.94000244
C     8.42000008  13.32999992  49.16999817
C    12.63000011  12.90999985  49.79000092
C    13.12999916  12.57999992  48.46000290
C    14.45000076  12.15000057  48.31999969
C     4.82999992  14.18000031  49.51000214
H     4.65610123  13.76959896  48.51530075
H     8.84000015  12.46999931  47.37999725
H    10.59000015  14.02999973  51.76000214
H     8.43999958  14.56999969  52.36999893
H     6.07999992  14.72000027  51.95999908
H     6.75000000  13.22999954  47.91999817
H    14.78000069  11.87000084  47.32999802
H     4.69000006  15.25000000  49.69999695
H     4.17000008  13.63999939  50.20000076
