96

S    12.46000099  16.79000092  44.34000015
C     9.90999985  17.39999962  45.07999802
C    11.09000015  16.84000015  45.38999939
C    11.43000031  16.34000015  46.70999908
C    10.38000011  16.25000000  47.63999939
C     9.06999969  16.77999878  47.31999969
C     7.96999979  16.70999908  48.27999878
C     6.71999979  17.13999939  47.90999985
C     6.56000042  17.80999947  46.60999680
C     7.67000008  18.01000023  45.75000000
C     8.90999985  17.38999939  46.06999969
C    12.81999969  16.04999924  46.81999969
C    13.53000069  16.28999901  45.65000153
C    14.84000015  16.28000069  45.52000046
C     5.23000002  18.22000122  46.09000397
H     4.86827993  17.49655914  45.35932541
H     9.57999992  17.94000053  44.19000244
H    10.62000084  16.04999924  48.68000031
H     8.02999973  16.36000061  49.31000137
H     5.88000011  17.13000107  48.61000061
H     7.59000015  18.40999985  44.73999786
H    15.24000072  16.36999893  44.51000214
H     4.51999998  18.51000023  46.88000107
H     5.28999996  19.14999962  45.50000000
S    16.02000046  15.29999924  49.18000031
C    18.67000008  14.85999966  48.33000183
C    17.40999985  15.34000015  48.00000000
C    17.05999947  15.93000031  46.79999924
C    18.13999939  15.97000027  45.86000061
C    19.45999908  15.65000057  46.13999939
C    20.56999969  15.80000019  45.24000168
C    21.81999969  15.24000072  45.47999954
C    22.01000023  14.77000046  46.79000092
C    21.02000046  14.57999992  47.70999908
C    19.70999908  14.96999931  47.38999939
C    15.62999916  16.04999924  46.65000153
C    14.91000080  15.76000023  47.87000275
C    13.55999947  15.84000015  47.98999786
C    23.45999908  14.44000053  47.15999985
H    23.69975090  14.88424397  48.12605667
H    18.96000099  14.60999966  49.34999847
H    17.88999939  16.22999954  44.82999802
H    20.28000069  16.31000137  44.33000183
H    22.59000015  15.32999992  44.72000122
H    21.34000015  14.35999966  48.73000336
H    13.10999966  16.09000015  48.95000076
H    24.23000145  14.73999977  46.45000076
H    23.52000046  13.35000038  47.14000320
S    15.78999996  13.09000015  52.02999878
C    18.38999939  12.51999950  51.31000137
C    17.09000015  12.51999950  50.98999786
C    16.67000008  12.06999969  49.72000122
C    17.57999992  11.64000034  48.74000168
C    18.94000053  11.64000034  49.06000137
C    19.82999992  11.00000000  48.18999863
C    21.18999863  10.71000004  48.59000397
C    21.63000107  11.32999992  49.87999725
C    20.72999954  11.97000027  50.70000076
C    19.36000061  12.09000015  50.34999847
C    15.21999931  12.23000050  49.61000061
C    14.59000015  12.81000042  50.70000076
C    13.22999954  13.12999916  50.77000046
C    23.09000015  11.06999969  50.27000046
H    23.31471252  11.26475048  51.31865692
H    18.71000099  12.90999985  52.27000427
H    17.30999947  11.26000023  47.76000214
H    19.50000000  10.47000027  47.29999924
H    21.71999931  10.03000069  47.95000076
H    20.95000076  12.31999969  51.70000076
H    12.72999954  13.57999992  51.62000275
H    23.09999847   9.98000050  50.18000031
H    23.72999954  11.61000061  49.55999756
S    11.87000084  11.89000034  47.22999954
C     9.19999981  12.44999981  47.94000244
C    10.54999924  12.38999939  48.25000000
C    11.05999947  12.94999981  49.45000076
C    10.22999954  13.50000000  50.34000015
C     8.85999966  13.60000038  50.06999969
C     7.99000025  14.13000011  51.06999969
C     6.70000029  14.22999954  50.83000183
C     6.12999964  13.66000080  49.62999725
C     6.94999981  13.10999966  48.70999908
C     8.31999969  12.98999977  48.94000244
C    12.46000099  12.81999969  49.66999817
C    13.07999992  12.18000031  48.52000427
C    14.44000053  11.87000084  48.48999786
C     4.75000000  14.11000061  49.22000122
H     4.54863834  13.78638458  48.19881439
H     8.63000011  12.20000076  47.04999924
H    10.62000084  13.76999950  51.32999802
H     8.48999977  14.59000015  51.91999817
H     6.17999983  14.93000031  51.45999908
H     6.56000042  12.86999893  47.72999573
H    14.75000000  11.30000019  47.62000275
H     4.55000019  15.18000031  49.27999878
H     4.05999994  13.71000099  49.98000336
