96

S    12.15000057  17.53999901  44.10999680
C     9.48000050  17.69000053  45.00000000
C    10.71000004  17.30999947  45.20000076
C    11.13999939  16.63999939  46.42000198
C    10.14999962  16.42000008  47.37999725
C     8.84000015  16.87999916  47.19999695
C     7.79999971  16.64999962  48.15000153
C     6.46000004  16.95999908  47.81999969
C     6.17999983  17.68000031  46.63000107
C     7.23000002  17.92000008  45.72999954
C     8.52999973  17.45000076  45.97000122
C    12.61000061  16.39000130  46.49000168
C    13.21000004  16.80999947  45.31000137
C    14.61999989  16.86000061  45.27000046
C     4.71000004  18.22000122  46.37000275
H     4.27413082  17.62500381  45.56744766
H     9.25000000  18.35000038  44.15999985
H    10.36999893  15.88000107  48.29999924
H     8.13000011  16.10999870  49.02999878
H     5.59999990  16.65999985  48.40999985
H     6.98000002  18.30999947  44.73999786
H    15.03000069  17.19000053  44.31999969
H     4.00999975  18.19000053  47.22000122
H     4.67999983  19.29000092  46.11000061
S    15.92000008  15.65999985  48.89999771
C    18.53000069  15.38000011  48.09999847
C    17.27000046  15.88999939  47.78999710
C    16.82999992  16.32999992  46.50000000
C    17.79000092  16.46000099  45.48999786
C    19.13999939  15.95999908  45.77000046
C    20.23999977  16.18999863  44.85000229
C    21.53000069  15.81999969  45.17000198
C    21.77000046  15.18000031  46.45999908
C    20.78000069  14.85999966  47.36999893
C    19.47999954  15.40999985  47.09000015
C    15.38000011  16.50000000  46.43000031
C    14.73000050  16.06999969  47.58999634
C    13.35999966  16.04999924  47.65999603
C    23.15999985  14.85999966  46.86000061
H    23.44838715  15.17722607  47.86214828
H    18.81000137  14.88000011  49.02000046
H    17.47999954  16.87999916  44.52999878
H    20.06000137  16.84999847  44.01000214
H    22.40999985  16.27000046  44.72999954
H    21.02999878  14.34999943  48.29000092
H    12.79999924  15.85000038  48.56999969
H    23.78000069  15.34999943  46.10000229
H    23.39999962  13.78999901  46.84000015
S    11.64000034  16.98999977  50.68000031
C     9.03999996  17.59000015  51.43000031
C    10.29999924  17.05999947  51.76000214
C    10.67999935  16.48999977  53.02999878
C     9.63000011  16.51000023  53.96999741
C     8.27999973  16.90999985  53.63999939
C     7.26000023  16.77000046  54.56999969
C     5.97000027  17.20999908  54.26000214
C     5.65000010  17.98999977  53.13000107
C     6.67999983  18.17000008  52.22000122
C     7.99000025  17.59000015  52.41000366
C    12.10999966  16.17000008  53.20999908
C    12.76999950  16.47999954  51.98999786
C    14.18000031  16.53000069  51.90000153
C     4.23000002  18.34000015  52.77999878
H     3.86750913  17.83535767  51.88443375
H     8.89000034  17.97999954  50.41999817
H     9.78999996  16.10999870  54.97000122
H     7.57000017  16.38000107  55.54000092
H     5.15999985  16.90000153  54.92000198
H     6.44999981  18.63999939  51.26999664
H    14.63999939  16.86000061  50.97999954
H     3.58999991  18.04000092  53.61000061
H     4.11999989  19.38999939  52.49000168
S    15.19000053  15.62999916  55.79999924
C    17.86000061  15.51000023  55.31999969
C    16.61000061  15.72999954  54.80999756
C    16.36000061  16.01000023  53.39000320
C    17.45000076  16.18000031  52.54000092
C    18.68000031  15.88999939  53.08000183
C    19.75000000  16.10000038  52.15999985
C    20.98999977  15.72000027  52.50999832
C    21.31999969  15.29000092  53.80000305
C    20.29999924  15.17000008  54.73999786
C    18.95000076  15.48999977  54.36999893
C    14.88999939  16.21999931  53.11000061
C    14.19000053  15.90999985  54.33000183
C    12.84000015  15.77999973  54.29999924
C    22.78000069  14.98999977  54.13999939
H    23.06491661  15.63289070  54.97283554
H    18.07999992  15.05000019  56.27999878
H    17.27000046  16.48999977  51.52000046
H    19.60000038  16.56999969  51.18999863
H    21.75000000  15.72000027  51.72999954
H    20.51000214  14.98999977  55.79000092
H    12.35000038  15.53999996  55.22999573
H    23.38999939  15.29000092  53.27999878
H    23.00000000  13.93000031  54.34999847
