96

S    12.56999969  16.65999985  44.20999908
C     9.92000008  17.05999947  44.91000366
C    11.21999931  16.72999954  45.31000137
C    11.57999992  16.34000015  46.63999939
C    10.55999947  16.23999977  47.56000137
C     9.19000053  16.50000000  47.22000122
C     8.13000011  16.53000069  48.16999817
C     6.84000015  16.92000008  47.84999847
C     6.51000023  17.30999947  46.50000000
C     7.50999975  17.26000023  45.56000137
C     8.86999989  16.97000122  45.90000153
C    13.00000000  16.06999969  46.76000214
C    13.69999981  16.21999931  45.52999878
C    15.07999992  16.18000031  45.45000076
C     5.09999990  17.63000107  46.18999863
H     4.92124033  17.43634224  45.13233948
H     9.68000031  17.13000107  43.85000229
H    10.84000015  16.10999870  48.60000229
H     8.34000015  16.02000046  49.10999680
H     6.05000019  16.93000031  48.59000397
H     7.37999964  17.38000107  44.48999786
H    15.59999943  16.53000069  44.56999969
H     4.40000010  17.19000053  46.91999817
H     4.98000002  18.71000099  46.36000061
S    16.14999962  15.06000042  49.06000137
C    18.79999924  15.01000023  48.40999985
C    17.53000069  15.36999893  48.04999924
C    17.20999908  15.80000019  46.72000122
C    18.18000031  15.88999939  45.72000122
C    19.47999954  15.42000008  46.04999924
C    20.52000046  15.44000053  45.07999802
C    21.80000114  15.26000023  45.40000153
C    22.18000031  14.75000000  46.66999817
C    21.21999931  14.73000050  47.64999771
C    19.78999901  15.11000061  47.41000366
C    15.78999996  15.93999958  46.56999969
C    15.06999969  15.59000015  47.77000046
C    13.71000099  15.67000008  47.90999985
C    23.57000160  14.28999996  47.00000000
H    23.86094475  14.76544571  47.93669891
H    19.01000023  14.46000004  49.31999969
H    17.90999985  16.38000107  44.79000092
H    20.29999924  15.80000019  44.06999969
H    22.60000038  15.54999924  44.72999954
H    21.38999939  14.28999996  48.61999893
H    13.19000053  15.34999943  48.81000137
H    24.27999878  14.50000000  46.19999695
H    23.47999954  13.20000076  47.04999924
S    12.03999996  16.84999847  50.96000290
C     9.28999996  17.18000031  51.65000153
C    10.60999966  16.76000023  51.97000122
C    10.85999966  16.21999931  53.27000046
C     9.78999996  16.13000107  54.20000076
C     8.42000008  16.53000069  53.87000275
C     7.37999964  16.31999969  54.81999969
C     6.10000038  16.86000061  54.45000076
C     5.84000015  17.39999962  53.16999817
C     6.89000034  17.60000038  52.25999832
C     8.26000023  17.14999962  52.58999634
C    12.30000019  16.11999893  53.48999786
C    13.07000065  16.43000031  52.32999802
C    14.48999977  16.28999901  52.30999756
C     4.38000011  17.92000008  52.88000107
H     4.12341738  17.56633186  51.88140869
H     9.02999973  17.68000031  50.72000122
H     9.96000004  15.53999996  55.10000229
H     7.59000015  15.92000008  55.80999756
H     5.29999971  16.92000008  55.18000031
H     6.84000015  18.15999985  51.32999802
H    15.07999992  16.42000008  51.40999603
H     3.75000000  17.45000076  53.63999939
H     4.39000034  19.00000000  53.06000137
S    15.42000008  15.21999931  56.00999832
C    18.06999969  14.80999947  55.27000046
C    16.81999969  15.26000023  54.93000031
C    16.52000046  15.81999969  53.67000198
C    17.51000023  15.86999989  52.67000198
C    18.75000000  15.26999950  52.95000076
C    19.78999901  15.21000004  51.97000122
C    21.04000092  14.77000046  52.34000397
C    21.37000084  14.55999947  53.68999863
C    20.35000038  14.50000000  54.59999847
C    19.05999947  14.82999992  54.23999786
C    15.11000061  16.03000069  53.48999786
C    14.37999916  15.85000038  54.72000122
C    12.98999977  15.86999989  54.68000031
C    22.79000092  14.15999985  54.03999710
H    23.09838867  14.55444908  55.00819397
H    18.15999985  14.42999935  56.27999878
H    17.20000076  16.17000008  51.68000031
H    19.68000031  15.80000019  51.06999969
H    21.80000114  14.57999992  51.59000015
H    20.61000061  14.22999954  55.61999893
H    12.43999958  15.52000046  55.54000092
H    23.45999908  14.47999954  53.22999954
H    22.90999985  13.07000065  53.95999908
