96

S    12.09000015  17.64999962  44.31000137
C     9.43000031  17.88999939  45.20000076
C    10.67000008  17.34000015  45.38999939
C    11.05000019  16.67000008  46.59999847
C    10.06999969  16.50000000  47.54000092
C     8.76999950  16.95999908  47.30999756
C     7.62000036  16.57999992  48.13000107
C     6.34000015  17.01000023  47.94000244
C     6.09000015  18.02000046  46.97000122
C     7.13999987  18.29000092  46.04999924
C     8.46000004  17.73999977  46.18999863
C    12.48999977  16.69000053  46.73999786
C    13.21000004  17.18000031  45.61000061
C    14.59000015  17.12000084  45.48999786
C     4.69999981  18.57999992  46.65000153
H     4.41914749  18.09750938  45.71382523
H     9.18000031  18.53000069  44.36000061
H    10.19000053  16.09000015  48.54000092
H     7.69000006  15.82999992  48.90999603
H     5.46999979  16.68000031  48.50000000
H     7.11999989  18.84000015  45.11000061
H    15.11999989  17.56000137  44.65000153
H     3.98999977  18.42000008  47.47000122
H     4.72000027  19.65999985  46.45999908
S    15.53999996  15.67999935  49.12000275
C    18.30000114  15.34999943  48.48999786
C    17.04000092  15.90000057  48.18999863
C    16.72000122  16.36000061  46.83000183
C    17.71999931  16.45000076  45.87999725
C    18.96999931  16.02000046  46.24000168
C    20.06000137  16.21999931  45.31000137
C    21.34000015  15.72000027  45.63000107
C    21.59000015  15.05000019  46.77999878
C    20.58000183  14.85999966  47.70000076
C    19.27999878  15.38000011  47.48000336
C    15.29000092  16.61999893  46.62000275
C    14.53999996  16.28999901  47.77999878
C    13.19000053  16.31000137  47.88999939
C    22.88999939  14.52000046  47.11000061
H    23.17391777  14.87671757  48.10007477
H    18.38000107  14.70999908  49.36999893
H    17.56999969  16.86000061  44.87999725
H    19.84000015  16.69999886  44.34999847
H    22.11999893  15.80000019  44.86999893
H    20.81000137  14.42999935  48.67000198
H    12.69999981  15.82999992  48.73000336
H    23.57000160  14.89999962  46.33999634
H    22.81999969  13.43000031  47.02000046
S    12.18999958  17.28000069  51.05999756
C     9.50000000  17.46999931  51.49000168
C    10.76000023  17.06999969  51.97999954
C    10.98999977  16.46999931  53.20000076
C     9.92999935  16.45000076  54.08000183
C     8.63000011  16.84000015  53.70999908
C     7.55000019  16.95000076  54.61999893
C     6.38000011  17.50000000  54.36000061
C     6.11999989  17.97999954  53.02999878
C     7.14999962  18.02999878  52.09999847
C     8.43000031  17.46999931  52.38999939
C    12.44999981  16.31999969  53.40000153
C    13.21000004  16.63999939  52.29000092
C    14.61999989  16.77000046  52.29999924
C     4.77999973  18.44000053  52.63000107
H     4.32151747  17.71224976  51.96046829
H     9.35999966  17.87999916  50.48999786
H    10.17000008  16.13999939  55.08999634
H     7.71000004  16.63999939  55.63999939
H     5.59000015  17.40999985  55.08999634
H     7.00000000  18.38000107  51.07999802
H    15.14000034  17.00000000  51.37000275
H     4.13000011  18.37000084  53.50999832
H     4.81999969  19.47999954  52.27000427
S    15.64000034  15.64000034  55.97999954
C    18.26000023  15.36000061  55.20000076
C    17.05000114  15.85000038  54.91000366
C    16.76000023  16.35000038  53.61000061
C    17.65999985  16.34000015  52.63000107
C    18.97999954  15.86999989  52.88000107
C    19.93999863  15.59000015  51.86000061
C    21.14000130  15.06999969  52.15999985
C    21.45999908  14.78000069  53.48999786
C    20.59999847  14.91000080  54.55999756
C    19.27000046  15.42000008  54.22000122
C    15.29000092  16.45000076  53.48999786
C    14.53999996  16.10999870  54.59999847
C    13.07999992  16.05999947  54.56999969
C    22.80999947  14.22000027  53.88000107
H    23.17683792  14.74308300  54.76313019
H    18.53000069  14.94999981  56.17000198
H    17.28999901  16.14999962  51.62000275
H    19.72999954  15.77999973  50.80999756
H    21.87000084  14.93999958  51.37000275
H    20.65999985  14.26000023  55.43000031
H    12.42000008  15.95000076  55.43000031
H    23.35000038  14.39000034  52.93000031
H    22.73999977  13.15000057  54.06999969
