96

S    12.53999901  16.54000092  44.33000183
C     9.94000053  17.14999962  45.06000137
C    11.17000008  16.69000053  45.44000244
C    11.51999950  16.46000099  46.77000046
C    10.47000027  16.46000099  47.72999573
C     9.13000011  16.82999992  47.39999771
C     8.03999996  16.65999985  48.26000214
C     6.84000015  17.10000038  47.85999680
C     6.67000008  17.67000008  46.62000275
C     7.65999985  17.71000099  45.70999908
C     8.93000031  17.21999931  46.02000427
C    12.92000008  16.21999931  46.97000122
C    13.56999969  16.34000015  45.70000076
C    14.96999931  16.36000061  45.59000015
C     5.26999998  18.25000000  46.27999878
H     4.74668598  17.60646439  45.57281876
H     9.68999958  17.31999969  44.02000046
H    10.59999943  16.22999954  48.77999878
H     8.19000053  16.03000069  49.13000107
H     5.97000027  16.92000008  48.48999786
H     7.40000010  18.09999847  44.72999954
H    15.44999981  16.36999893  44.61000061
H     4.59000015  18.42000008  47.11999893
H     5.42999983  19.20999908  45.76000214
S    16.11999893  15.57000065  49.38000107
C    18.78999901  15.01999950  48.54000092
C    17.50000000  15.57999992  48.27000046
C    17.20000076  15.95000076  46.88999939
C    18.15999985  15.90999985  45.91999817
C    19.44000053  15.38000011  46.18999863
C    20.43999863  15.31999969  45.14999771
C    21.71999931  14.93000031  45.47000122
C    22.00000000  14.42000008  46.76000214
C    21.02000046  14.44000053  47.77999878
C    19.76000023  14.94999981  47.50000000
C    15.70000076  16.03999901  46.76000214
C    15.08999920  15.93999958  48.06000137
C    13.67000008  16.02000046  48.13000107
C    23.42000008  14.15999985  47.09999847
H    23.66133881  14.63536263  48.05072784
H    19.11999893  14.59000015  49.47999954
H    18.02999878  16.11999893  44.86000061
H    20.25000000  15.92000008  44.27000046
H    22.56999969  14.94999981  44.79999924
H    21.31999969  14.13000011  48.77999878
H    13.12000084  16.03000069  49.06999969
H    23.88000107  14.57999992  46.19999695
H    23.45999908  13.07000065  47.11000061
S    11.72000027  17.11000061  50.86999893
C     9.15999985  17.64999962  51.56999969
C    10.42000008  17.13999939  51.97000122
C    10.77000046  16.72999954  53.27000046
C     9.77999973  16.72000122  54.25000000
C     8.47000027  17.21999931  53.90999603
C     7.40000010  17.09000015  54.81999969
C     6.09000015  17.45000076  54.52000046
C     5.79999971  18.07999992  53.27999878
C     6.83000040  18.22999954  52.36000061
C     8.21000004  17.81999969  52.64999771
C    12.15999985  16.55999947  53.43999863
C    12.86000061  16.84999847  52.23999786
C    14.17000008  16.80999947  52.19999695
C     4.38000011  18.39999962  52.93000031
H     4.03656960  17.97786713  51.98556519
H     9.02999973  17.98999977  50.54000092
H    10.00000000  16.11999893  55.13000107
H     7.67000008  16.65999985  55.77999878
H     5.32000017  17.56000137  55.27999878
H     6.57000017  18.40999985  51.31999969
H    14.65000057  16.84000015  51.23000336
H     3.70000005  17.94000053  53.66000366
H     4.30999994  19.48999977  52.88000107
S    15.21999931  15.57000065  55.84999847
C    17.86000061  15.22999954  55.18000031
C    16.61000061  15.62000084  54.79000092
C    16.29999924  16.25000000  53.52000427
C    17.39999962  16.43000031  52.62000275
C    18.68000031  15.95999908  52.97999954
C    19.77000046  15.95000076  52.05999756
C    21.02999878  15.48999977  52.36999893
C    21.24000168  14.98000050  53.70999908
C    20.25000000  15.01000023  54.64000320
C    18.90999985  15.39999962  54.31000137
C    14.88999939  16.47999954  53.33000183
C    14.19999981  16.26000023  54.54000092
C    12.84999943  16.28000069  54.61999893
C    22.56999969  14.46000004  54.13000107
H    22.87353134  14.99960995  55.02710342
H    18.01000023  14.73999977  56.13999939
H    17.27000046  16.80999947  51.59999847
H    19.62000084  16.53000069  51.14999771
H    21.80000114  15.52000046  51.60999680
H    20.39999962  14.59000015  55.63999939
H    12.43999958  16.13000107  55.61000061
H    23.22999954  14.67000008  53.29000092
H    22.43000031  13.40000057  54.36999893
