96

S    12.28999996  17.23999977  44.13999939
C     9.64999962  17.56000137  44.91000366
C    10.88000107  17.02999878  45.21999741
C    11.28000069  16.72999954  46.56999969
C    10.25000000  16.79000092  47.50999832
C     8.98999977  17.35000038  47.27000427
C     7.97999954  17.56000137  48.26000214
C     6.70000029  17.80999947  47.93000031
C     6.38999987  18.22999954  46.59999847
C     7.31999969  18.15000153  45.61999893
C     8.67999935  17.70000076  45.94999695
C    12.71000004  16.54000092  46.63999939
C    13.43000031  16.86000061  45.45000076
C    14.85999966  17.05999947  45.45000076
C     4.88000011  18.23999977  46.17000198
H     4.60504961  17.52368164  45.39579773
H     9.47000027  17.98999977  43.93000031
H    10.52000046  16.53000069  48.53000259
H     8.14000034  17.35000038  49.31999969
H     5.97000027  17.46000099  48.66000366
H     7.11999989  18.38999939  44.58000183
H    15.34000015  17.45000076  44.54999924
H     4.23999977  18.05999947  47.04000092
H     4.69000006  19.25000000  45.77000046
S    15.98000050  16.03999901  49.06000137
C    18.59000015  15.55999947  48.25000000
C    17.36999893  16.02000046  47.97999954
C    17.02000046  16.43000031  46.69000244
C    18.02000046  16.54999924  45.68000031
C    19.32999992  15.98000050  45.94999695
C    20.32999992  15.77000046  44.98000336
C    21.55999947  15.24000072  45.37000275
C    21.80000114  14.98000050  46.69000244
C    20.79000092  15.05000019  47.63000107
C    19.55999947  15.52000046  47.25999832
C    15.54999924  16.61000061  46.55000305
C    14.84000015  16.39000130  47.72999573
C    13.45999908  16.42000008  47.80000305
C    23.12000084  14.56999969  47.18999863
H    23.36866188  15.11705589  48.09939194
H    18.82999992  15.21000004  49.25000000
H    17.78000069  16.86000061  44.66999817
H    20.17999840  16.23999977  44.01000214
H    22.36000061  15.31000042  44.64000320
H    21.05999947  14.81999969  48.66000366
H    12.94999981  16.47999954  48.75999832
H    23.85999870  14.84000015  46.43000031
H    23.01000214  13.48999977  47.35000229
S    12.30000019  17.56999969  50.96000290
C     9.73999977  18.05999947  51.72000122
C    10.93000031  17.60000038  52.05999756
C    11.26000023  16.98999977  53.30999756
C    10.27999973  16.93000031  54.29999924
C     8.94999981  17.36999893  53.95000076
C     7.82999992  17.28000069  54.81999969
C     6.56000042  17.56999969  54.43000031
C     6.34000015  18.20000076  53.20999908
C     7.36999989  18.44000053  52.38999939
C     8.67999935  17.94999886  52.63000107
C    12.68000031  16.72999954  53.43999863
C    13.35999966  17.05000114  52.25000000
C    14.75999928  17.06999969  52.12999725
C     4.98000002  18.73999977  52.83000183
H     4.57786274  18.30964279  51.91284561
H     9.63999939  18.71000099  50.86000061
H    10.39000034  16.36999893  55.21999741
H     8.00000000  16.82999992  55.79000092
H     5.73999977  17.43000031  55.13000107
H     7.31999969  19.11000061  51.53999710
H    15.24000072  17.53999901  51.27999878
H     4.33999968  18.53999901  53.68999863
H     5.00999975  19.84000015  52.81999969
S    15.93000031  15.75000000  55.77999878
C    18.53000069  15.40999985  54.82999802
C    17.30999947  15.86999989  54.65999985
C    16.94000053  16.51000023  53.40000153
C    17.90999985  16.67000008  52.43000031
C    19.22000122  16.09000015  52.63000107
C    20.26000023  16.07999992  51.66999817
C    21.55999947  15.85999966  52.01000214
C    21.88999939  15.47999954  53.36000061
C    20.86999893  15.29000092  54.22999954
C    19.56999969  15.59999943  53.89999771
C    15.51000023  16.67000008  53.27000046
C    14.82999992  16.38000107  54.52999878
C    13.45000076  16.36000061  54.61999893
C    23.32999992  15.11000061  53.80000305
H    23.41428757  15.27155113  54.87466431
H    18.85000038  14.98999977  55.77999878
H    17.67000008  17.01000023  51.42000198
H    20.00000000  16.42000008  50.66999817
H    22.36999893  16.03999901  51.31000137
H    21.02000046  14.80000019  55.19000244
H    12.93000031  16.14999962  55.54999924
H    24.07999992  15.72999954  53.29999924
H    23.57999992  14.06999969  53.53000259
