96

S    12.10999966  17.29999924  44.43000031
C     9.34000015  17.35000038  45.13999939
C    10.65000057  16.98999977  45.45000076
C    11.05000019  16.61000061  46.76000214
C    10.05000019  16.39000130  47.74000168
C     8.67999935  16.75000000  47.47000122
C     7.62000036  16.72999954  48.40999985
C     6.37000036  17.19000053  48.13000107
C     6.05999994  17.65999985  46.81000137
C     7.03000021  17.63000107  45.80999756
C     8.34000015  17.18000031  46.11999893
C    12.46999931  16.54999924  46.90999985
C    13.22999954  16.94000053  45.76000214
C    14.59000015  16.93000031  45.65999985
C     4.67000008  17.98999977  46.33999634
H     4.43080282  17.51160622  45.39024734
H     9.15000057  17.71000099  44.13000107
H    10.25000000  16.21000099  48.80000305
H     7.82000017  16.28000069  49.38000107
H     5.58000040  17.12000084  48.87000275
H     6.83000040  18.19000053  44.89999771
H    15.14000034  17.12000084  44.73999786
H     4.07999992  17.64000130  47.18999863
H     4.61999989  19.05999947  46.12999725
S    15.54999924  15.65999985  49.31999969
C    18.20000076  15.19999981  48.63999939
C    16.93000031  15.59999943  48.31999969
C    16.72999954  16.20000076  47.04000092
C    17.71000099  16.29999924  46.11000061
C    19.01000023  15.78999996  46.42000198
C    20.06000137  15.85999966  45.52999878
C    21.28999901  15.39000034  45.89000320
C    21.59000015  14.73999977  47.11999893
C    20.55999947  14.61999989  48.01000214
C    19.25000000  15.19000053  47.72999573
C    15.31999969  16.47999954  46.79000092
C    14.59000015  16.10000038  47.98999786
C    13.15999985  16.13999939  48.08000183
C    22.98999977  14.35999966  47.50999832
H    23.20968246  14.68219852  48.52785110
H    18.45000076  14.81999969  49.62999725
H    17.54999924  16.56999969  45.06999969
H    19.86999893  16.52000046  44.68999863
H    22.13000107  15.52000046  45.20999908
H    20.79000092  14.22000027  48.99000168
H    12.56999969  15.84000015  48.94000244
H    23.64999962  14.93000031  46.84999847
H    23.15000153  13.28999996  47.36000061
S    15.69000053  12.88000011  51.97999954
C    18.30999947  12.32999992  51.37000275
C    16.98999977  12.38999939  50.98999786
C    16.54999924  12.09000015  49.65999985
C    17.38999939  11.73999977  48.73000336
C    18.81000137  11.71000004  49.01000214
C    19.76000023  11.31999969  48.08000183
C    21.04999924  11.13000011  48.47999954
C    21.48999977  11.26999950  49.80999756
C    20.58000183  11.76000023  50.70000076
C    19.25000000  11.92999935  50.34000015
C    15.06999969  12.34000015  49.45000076
C    14.52999973  12.75000000  50.63999939
C    13.22000027  13.22000027  50.70000076
C    22.98999977  11.03000069  50.07999802
H    23.25647926  11.34689426  51.08829880
H    18.53999901  12.86000061  52.29000092
H    17.18000031  11.36000061  47.72999573
H    19.45000076  11.03000069  47.08000183
H    21.78999901  11.06999969  47.68000031
H    20.95999908  11.87000084  51.70999908
H    12.84000015  13.81999969  51.52000046
H    23.12000084   9.94000053  50.02999878
H    23.65999985  11.59000015  49.41999817
S    11.79999924  12.55000019  47.06999969
C     9.15999985  12.90999985  47.95000076
C    10.50000000  12.94999981  48.22000122
C    11.05999947  13.43000031  49.45000076
C    10.21000004  13.86000061  50.44000244
C     8.80999947  13.71999931  50.30000305
C     7.95000029  14.11999893  51.31999969
C     6.54999971  14.27000046  51.00000000
C     6.05999994  13.83999920  49.75000000
C     6.89000034  13.28999996  48.82999802
C     8.27999973  13.23999977  49.02999878
C    12.46000099  13.10999966  49.59000015
C    12.94999981  12.63000011  48.36000061
C    14.22999954  12.20000076  48.36000061
C     4.61999989  14.02999973  49.47000122
H     4.30719185  13.64089775  48.50105667
H     8.71999931  12.50000000  47.04999924
H    10.51000023  14.21000004  51.42000198
H     8.38000011  14.46000004  52.25999832
H     5.96000004  14.85999966  51.70000076
H     6.50000000  12.96000004  47.87000275
H    14.68000031  11.87999916  47.42000198
H     4.42000008  15.08999920  49.68000031
H     4.05999994  13.45000076  50.20999908
