96

S    12.30999947  16.86000061  44.34999847
C     9.67000008  17.04000092  44.95999908
C    10.98999977  16.77000046  45.37000275
C    11.35000038  16.32999992  46.66999817
C    10.36999893  16.15999985  47.63000107
C     9.06000042  16.59000015  47.31999969
C     7.96999979  16.57999992  48.23999786
C     6.61000013  16.79999924  47.83000183
C     6.32000017  17.30999947  46.56000137
C     7.36999989  17.50000000  45.65999985
C     8.73000050  17.09000015  45.96000290
C    12.81000042  16.15999985  46.86999893
C    13.47000027  16.45000076  45.66999817
C    14.85000038  16.28999901  45.52999878
C     4.88000011  17.53000069  46.18999863
H     4.53818512  16.96743011  45.32122040
H     9.48999977  17.36999893  43.93000031
H    10.48999977  15.80000019  48.63999939
H     8.22000027  16.21000099  49.22999954
H     5.75999975  16.72000122  48.48999786
H     7.13000011  17.82999992  44.65000153
H    15.44999981  16.54999924  44.65999985
H     4.23999977  17.21999931  47.02999878
H     4.81999969  18.60999870  45.98999786
S    16.03000069  15.25000000  49.15000153
C    18.65999985  14.88999939  48.13999939
C    17.39999962  15.31000042  47.98999786
C    17.01000023  15.78999996  46.70999908
C    17.88999939  15.88999939  45.63000107
C    19.22000122  15.47000027  45.77000046
C    20.15000153  15.38000011  44.69999695
C    21.48999977  14.98999977  44.93000031
C    21.87000084  14.60999966  46.30000305
C    20.93000031  14.56999969  47.25999832
C    19.63999939  15.05000019  47.09000015
C    15.57999992  15.90999985  46.63999939
C    14.93999958  15.67999935  47.85999680
C    13.56999969  15.82999992  48.02999878
C    23.31999969  14.47000027  46.63999939
H    23.58530426  15.18911839  47.41497040
H    19.12999916  14.47000027  49.02999878
H    17.47999954  16.21000099  44.68000031
H    19.80999947  15.72999954  43.73000336
H    22.27000046  15.00000000  44.16999817
H    21.25999832  14.22000027  48.23999786
H    13.04999924  15.77999973  48.97999573
H    23.82999802  14.68000031  45.68000031
H    23.52999878  13.42000008  46.86000061
S    15.88000107  12.88000011  52.19999695
C    18.44000053  12.32999992  51.51000214
C    17.14999962  12.27000046  51.22000122
C    16.67000008  11.80999947  49.93999863
C    17.56999969  11.23999977  49.02000046
C    18.93000031  11.23000050  49.33000183
C    19.88999939  10.77999973  48.37999725
C    21.27000046  10.80000019  48.72000122
C    21.70000076  11.32999992  49.99000168
C    20.79000092  11.92999935  50.76000214
C    19.40999985  11.87999916  50.51000214
C    15.22999954  12.09000015  49.78000259
C    14.68000031  12.64999962  50.97999954
C    13.35999966  13.02000046  50.97999954
C    23.15999985  11.46999931  50.26000214
H    23.42653084  11.12145710  51.25778961
H    18.89999962  12.75000000  52.39999771
H    17.21999931  10.81999969  48.08000183
H    19.56999969  10.62999916  47.36000061
H    22.03000069  10.46000004  48.02000046
H    21.04000092  12.53000069  51.62000275
H    12.94999981  13.43000031  51.90999985
H    23.75000000  10.88000107  49.54999924
H    23.51000023  12.50000000  50.10000229
S    11.92999935  12.10999966  47.36000061
C     9.30999947  12.68000031  48.16999817
C    10.65999985  12.71000004  48.50000000
C    11.13999939  13.12999916  49.75999832
C    10.31000042  13.56999969  50.70999908
C     8.89000034  13.55000019  50.47000122
C     7.86000013  13.86000061  51.40999603
C     6.57000017  13.92000008  51.04999924
C     6.14000034  13.47000027  49.73999786
C     7.05999947  12.92000008  48.87000275
C     8.46000004  13.12999916  49.18000031
C    12.51999950  12.82999992  49.82999802
C    13.10999966  12.23999977  48.68000031
C    14.44000053  11.90999985  48.63999939
C     4.77999973  13.81000042  49.22999954
H     4.42694902  13.22638512  48.37979507
H     8.89999962  12.11999989  47.32999802
H    10.64000034  13.63000011  51.73999786
H     8.07999992  14.30999947  52.36999893
H     5.89999962  14.44000053  51.72000122
H     6.76999998  12.56999969  47.88000107
H    14.96000099  11.54999924  47.75000000
H     4.80999994  14.89999962  49.15999985
H     4.09999990  13.73000050  50.08999634
