96

S    12.10000038  17.05999947  44.27999878
C     9.44999981  17.68000031  45.00999832
C    10.64000034  17.10000038  45.38000107
C    10.90999985  16.69999886  46.70999908
C     9.92999935  16.90999985  47.63999939
C     8.67000008  17.53000069  47.35000229
C     7.59000015  17.64000130  48.29999924
C     6.35999966  17.94999886  47.83000183
C     6.11999989  18.30000114  46.47999573
C     7.16000032  18.36000061  45.61999893
C     8.43000031  17.86000061  46.00999832
C    12.36999989  16.46000099  46.84000015
C    13.09999943  16.64999962  45.59999847
C    14.52000046  16.60000038  45.61999893
C     4.69999981  18.60000038  46.00999832
H     4.58017159  18.02200508  45.09366608
H     9.26999950  17.98999977  43.97999573
H    10.14000034  16.54999924  48.64999771
H     7.65999985  17.19000053  49.29000092
H     5.50000000  18.04999924  48.48999786
H     7.00999975  18.68999863  44.59999847
H    15.01999950  16.80999947  44.68000031
H     4.03999996  18.30999947  46.83000183
H     4.78999996  19.69000053  45.86000061
S    15.52000046  15.67000008  49.33000183
C    18.22999954  15.34000015  48.62999725
C    16.97000122  15.81999969  48.30999756
C    16.64999962  16.26000023  46.97000122
C    17.68000031  16.44000053  46.03000259
C    18.96999931  15.92000008  46.32999802
C    20.00999832  15.78999996  45.37000275
C    21.22999954  15.31000042  45.68000031
C    21.54000092  14.91000080  47.00000000
C    20.56999969  14.92000008  47.90000153
C    19.25000000  15.39000034  47.67000198
C    15.24000072  16.35000038  46.84000015
C    14.51000023  16.18999863  48.00000000
C    13.12999916  16.22999954  48.02000046
C    22.86999893  14.23999977  47.36999893
H    23.23055649  14.58641624  48.33855057
H    18.40999985  15.11999989  49.68000031
H    17.56999969  16.69000053  44.98000336
H    19.67000008  16.02000046  44.36000061
H    21.84999847  15.03000069  44.84000397
H    20.81000137  14.57999992  48.89999771
H    12.64999962  16.07999992  48.97999573
H    23.61000061  14.37000084  46.58000183
H    22.72999954  13.15000057  47.34000397
S    16.13000107  12.84999943  52.25999832
C    18.78000069  12.69000053  51.32999802
C    17.45000076  12.51999950  51.11999893
C    16.98999977  12.06999969  49.81999969
C    17.88999939  11.67000008  48.81999969
C    19.29000092  11.76000023  49.22000122
C    20.23999977  11.02000046  48.43000031
C    21.54000092  10.93000031  48.75999832
C    22.01999855  11.44999981  49.99000168
C    21.07999992  12.13999939  50.77000046
C    19.73999977  12.25999928  50.44000244
C    15.52000046  12.32999992  49.72000122
C    14.89999962  12.67000008  50.93999863
C    13.55999947  13.12999916  51.04999924
C    23.44000053  11.16000080  50.45000076
H    23.70832253  11.47068882  51.45973969
H    19.15999985  13.22000027  52.19999695
H    17.40999985  11.02000046  48.09000015
H    19.92000008  10.36000061  47.63000107
H    22.11000061  10.34999943  48.02999878
H    21.40999985  12.48000050  51.75000000
H    13.17999935  13.66000080  51.91999817
H    23.48999977  10.06999969  50.41999817
H    24.23999977  11.50000000  49.77000427
S    12.15999985  12.71999931  47.36999893
C     9.55999947  13.32999992  48.18000031
C    10.84000015  13.15999985  48.50000000
C    11.31999969  13.40000057  49.82999802
C    10.47000027  13.88000011  50.77999878
C     9.10000038  14.21000004  50.41999817
C     8.14000034  14.70000076  51.37000275
C     6.84999990  14.73999977  51.00000000
C     6.39999962  14.55000019  49.66999817
C     7.28999996  14.19999981  48.69999695
C     8.67000008  13.94000053  49.08000183
C    12.76999950  13.02999973  49.88999939
C    13.32999992  12.60000038  48.68999863
C    14.67000008  12.27000046  48.59000397
C     4.88000011  14.56999969  49.40000153
H     4.63595200  14.22546196  48.39509583
H     9.21000004  13.03999996  47.18999863
H    10.76000023  13.78999901  51.81999969
H     8.43999958  14.96000099  52.38999939
H     6.10000038  15.03000069  51.72000122
H     7.03000021  14.01999950  47.67000198
H    15.11999989  12.05999947  47.62000275
H     4.59000015  15.62000084  49.52000046
H     4.41000032  13.86000061  50.10000229
