96

S    12.28999996  17.04000092  44.09999847
C     9.61999989  17.35000038  44.85000229
C    10.93999958  16.90999985  45.13999939
C    11.31999969  16.28999901  46.40999603
C    10.40999985  16.26000023  47.42000198
C     9.07999992  16.80999947  47.15999985
C     8.00000000  16.69000053  48.08000183
C     6.70000029  17.17000008  47.80000305
C     6.40999985  17.68000031  46.55000305
C     7.42000008  17.79999924  45.61999893
C     8.69000053  17.31999969  45.86000061
C    12.71000004  16.10000038  46.52999878
C    13.42000008  16.48999977  45.34999847
C    14.78999996  16.46999931  45.30000305
C     5.03000021  18.09999847  46.17000198
H     4.47527504  17.37739754  45.57147980
H     9.32999992  17.79000092  43.89999771
H    10.57999992  15.67000008  48.30999756
H     8.22000027  16.34000015  49.09000015
H     6.06999969  17.43000031  48.64999771
H     7.17000008  18.39999962  44.75000000
H    15.38000011  16.69999886  44.41999817
H     4.48999977  18.25000000  47.11000061
H     5.21000004  19.05999947  45.66999817
S    15.80000019  15.01000023  48.87000275
C    18.51000023  14.88999939  48.31999969
C    17.22999954  15.21999931  47.91999817
C    16.97000122  15.78999996  46.62000275
C    18.00000000  16.03000069  45.72999954
C    19.31999969  15.76000023  46.06999969
C    20.38000107  16.05999947  45.15999603
C    21.65999985  15.59999943  45.45000076
C    21.81999969  14.80999947  46.68000031
C    20.81000137  14.60000038  47.58999634
C    19.59000015  15.11999989  47.37999725
C    15.52000046  15.98000050  46.38999939
C    14.78999996  15.67000008  47.61000061
C    13.38999939  15.60999966  47.63000107
C    23.28000069  14.48999977  47.11999893
H    23.59585953  14.81989861  48.10969543
H    18.79999924  14.55000019  49.31000137
H    17.77000046  16.52000046  44.78000259
H    20.25000000  16.43000031  44.15000153
H    22.49000168  15.82999992  44.78000259
H    21.02000046  14.06000042  48.50999832
H    12.94000053  15.08999920  48.47000122
H    23.95000076  15.03999901  46.45000076
H    23.47999954  13.42000008  47.02000046
S    15.90999985  12.22000027  51.98999786
C    18.50000000  11.97999954  51.20999908
C    17.15999985  11.97999954  50.84000015
C    16.73999977  11.63000011  49.52999878
C    17.71999931  11.23000050  48.62999725
C    19.11999893  11.33999920  48.89999771
C    20.06999969  10.90999985  47.95999908
C    21.42999840  10.85000038  48.27000046
C    21.90999985  11.03000069  49.61000061
C    20.89999962  11.38000011  50.50000000
C    19.55000114  11.57999992  50.21999741
C    15.36000061  11.75000000  49.38999939
C    14.80000019  12.10000038  50.68000031
C    13.53999996  12.57999992  50.84000015
C    23.36999893  10.88999939  50.04000092
H    23.59175682  11.16898441  51.07009506
H    18.89000130  12.32999992  52.16999817
H    17.30999947  10.84000015  47.70999908
H    19.67000008  10.72000027  46.97000122
H    22.17000008  10.78999996  47.48000336
H    21.21999931  11.64999962  51.50000000
H    13.28999996  13.02999973  51.79999924
H    23.71000099   9.85000038  50.06999969
H    23.95999908  11.46000004  49.31000137
S    11.97000027  11.94000053  47.19999695
C     9.38000011  12.86000061  47.97000122
C    10.72000027  12.61999989  48.25000000
C    11.26000023  12.94000053  49.54000092
C    10.36999893  13.45999908  50.52999878
C     8.98999977  13.50999928  50.24000168
C     8.07999992  14.04999924  51.20999908
C     6.71999979  14.14999962  50.98999786
C     6.17999983  13.75000000  49.69999695
C     7.03999996  13.30000019  48.70999908
C     8.43999958  13.22000027  48.95999908
C    12.71999931  12.57999992  49.68000031
C    13.23999977  12.06999969  48.43000031
C    14.55999947  11.71000004  48.25000000
C     4.76000023  14.01999950  49.33000183
H     4.41003180  13.52718735  48.42294312
H     8.89999962  12.63000011  47.02000046
H    10.69000053  13.69999981  51.53999710
H     8.53999996  14.40000057  52.12999725
H     6.15000010  14.59000015  51.81000137
H     6.69000053  13.15000057  47.69000244
H    15.03999901  11.54000092  47.29000092
H     4.59999990  15.10000038  49.15000153
H     4.07000017  13.60999966  50.07999802
