96

S    12.18999958  17.12000084  43.94000244
C     9.57999992  17.70000076  44.78000259
C    10.85999966  17.29999924  45.11000061
C    11.21000099  16.75000000  46.36000061
C    10.21000004  16.68000031  47.29000092
C     8.89999962  17.05999947  47.02999878
C     7.79999971  16.87000084  48.02000046
C     6.52999973  17.38000107  47.77999878
C     6.23000050  18.04000092  46.52000046
C     7.27999973  18.12000084  45.52000046
C     8.59000015  17.64000130  45.76000214
C    12.61999989  16.68000031  46.45000076
C    13.36999989  16.87000084  45.25000000
C    14.73000050  16.87000084  45.25000000
C     4.78999996  18.34000015  46.11999893
H     4.36407089  17.76743889  45.29607010
H     9.32999992  18.09000015  43.79000092
H    10.47000027  16.46000099  48.31999969
H     8.03999996  16.52000046  49.02000046
H     5.84000015  17.15999985  48.59000397
H     7.00000000  18.32999992  44.48999786
H    15.31000042  17.00000000  44.33000183
H     4.26999998  18.26000023  47.08000183
H     4.72000027  19.42000008  45.93000031
S    15.72000027  16.31999969  49.08000183
C    18.47999954  15.85999966  48.40999985
C    17.22999954  16.21999931  47.98999786
C    16.92000008  16.55999947  46.59000015
C    17.97999954  16.54999924  45.61000061
C    19.29999924  16.22999954  46.02000427
C    20.38999939  16.15999985  45.14999771
C    21.56999969  15.62999916  45.54999924
C    21.78999901  15.18000031  46.83000183
C    20.71000099  15.15999985  47.69000244
C    19.50000000  15.80999947  47.37999725
C    15.43000031  16.56999969  46.40999603
C    14.63999939  16.51000023  47.63999939
C    13.23999977  16.56999969  47.67000198
C    23.18000031  14.65000057  47.16999817
H    23.59334183  15.14886284  48.04657364
H    18.59000015  15.46000004  49.40999985
H    17.63000107  16.45000076  44.58000183
H    20.30999947  16.46000099  44.10999680
H    22.36000061  15.71000004  44.80999756
H    20.85000038  14.72000027  48.68000031
H    12.71000004  16.53000069  48.61999893
H    23.71000099  14.84000015  46.23000336
H    23.05000114  13.55999947  47.12999725
S    16.22999954  13.50000000  51.97999954
C    18.86000061  12.84999943  51.18999863
C    17.56000137  12.97000027  50.91999817
C    17.05000114  12.67000008  49.61000061
C    17.87999916  12.23999977  48.60000229
C    19.27000046  12.02000046  48.83999634
C    20.15000153  11.42000008  47.95000076
C    21.53000069  11.23999977  48.30999756
C    21.90000153  11.54999924  49.65000153
C    21.02999878  12.11999989  50.52000046
C    19.70999908  12.42000008  50.21999741
C    15.59000015  12.86000061  49.50000000
C    15.03000069  13.30000019  50.72999954
C    13.66000080  13.66000080  50.87999725
C    23.36000061  11.38000011  50.18000031
H    23.60254288  11.81363773  51.15017319
H    19.26000023  13.04999924  52.18000031
H    17.43999863  11.94000053  47.65999603
H    19.65999985  11.06999969  47.04999924
H    22.23999977  10.78999996  47.62000275
H    21.45000076  12.38999939  51.49000168
H    13.23999977  14.01000023  51.81999969
H    23.52000046  10.29999924  50.18000031
H    24.04999924  11.77000046  49.41999817
S    12.02999973  12.68000031  47.36999893
C     9.44000053  13.07999992  48.23999786
C    10.81999969  13.21000004  48.52000427
C    11.33999920  13.60000038  49.79000092
C    10.39999962  13.89999962  50.79000092
C     9.04999924  14.07999992  50.41999817
C     8.14999962  14.45000076  51.44000244
C     6.80999994  14.53999996  51.20999908
C     6.28999996  14.15999985  49.93000031
C     7.09000015  13.60999966  48.99000168
C     8.52999973  13.60000038  49.18000031
C    12.82999992  13.47000027  49.79999924
C    13.30999947  12.96000004  48.54000092
C    14.65999985  12.60000038  48.46000290
C     4.90000010  14.37999916  49.56999969
H     4.70351601  13.98703289  48.57246780
H     8.93000031  12.64999962  47.37999725
H    10.67000008  13.92000008  51.84000015
H     8.59000015  14.78000069  52.37999725
H     6.17999983  14.92000008  52.01000214
H     6.71000004  13.15000057  48.08000183
H    15.10000038  12.10000038  47.58999634
H     4.48999977  15.36999893  49.82999802
H     4.23999977  13.86999989  50.27999878
