96

S    11.97999954  17.61999893  44.18000031
C     9.19999981  17.61000061  44.94999695
C    10.55999947  17.46000099  45.21999741
C    10.95000076  17.04000092  46.50000000
C     9.96000004  16.95000076  47.50999832
C     8.60999966  17.23999977  47.36000061
C     7.63999987  17.32999992  48.40000153
C     6.34999990  17.56999969  48.11999893
C     5.95000029  17.89999962  46.76000214
C     6.89000034  17.92000008  45.73999786
C     8.22000027  17.53999901  46.00000000
C    12.38000011  16.88999939  46.65000153
C    13.10999966  17.13000107  45.48999786
C    14.53999996  16.97999954  45.45999908
C     4.53000021  18.27999878  46.40999603
H     4.24561501  17.65435219  45.56394958
H     8.82999992  18.04000092  44.02000046
H    10.26999950  16.77000046  48.53000259
H     8.00000000  17.05999947  49.40000153
H     5.59000015  17.64000130  48.88999939
H     6.72999954  18.38000107  44.77000427
H    15.11000061  17.15999985  44.55999756
H     3.86000013  18.06999969  47.25000000
H     4.59999990  19.34000015  46.11999893
S    15.59000015  15.85999966  49.18000031
C    18.31999969  15.80000019  48.72000122
C    17.02000046  16.11999893  48.27999878
C    16.70999908  16.64999962  46.97999954
C    17.82999992  16.77999878  46.07999802
C    19.11000061  16.31000137  46.37000275
C    20.06000137  16.18999863  45.34999847
C    21.25000000  15.55999947  45.65999985
C    21.50000000  15.13000011  47.04999924
C    20.59999847  15.25000000  48.02000046
C    19.34999847  15.80999947  47.74000168
C    15.27999973  16.69999886  46.65999985
C    14.52000046  16.38000107  47.84000015
C    13.15000057  16.50000000  47.81000137
C    22.93000031  14.65999985  47.41000366
H    23.31167793  15.11942768  48.32178497
H    18.53000069  15.55999947  49.75999832
H    17.53000069  16.73999977  45.04000092
H    19.81999969  16.52000046  44.34000015
H    22.04000092  15.44999981  44.92000198
H    20.79999924  14.81999969  49.00000000
H    12.58999920  16.26000023  48.70999908
H    23.59999847  15.01999950  46.60999680
H    22.95000076  13.56999969  47.31999969
S    15.88999939  13.22999954  52.36000061
C    18.54999924  12.76999950  51.60999680
C    17.21999931  12.71000004  51.31999969
C    16.81999969  12.32999992  50.01999664
C    17.71999931  11.89000034  49.09000015
C    19.12999916  11.90000057  49.43999863
C    20.07999802  11.36999989  48.54000092
C    21.35999870  11.17000008  49.00000000
C    21.80999947  11.64999962  50.25000000
C    20.92000008  12.35000038  51.06999969
C    19.50000000  12.25000000  50.73999786
C    15.40999985  12.61000061  49.80999756
C    14.75999928  13.12000084  51.00000000
C    13.40999985  13.48999977  51.05999756
C    23.23999786  11.40999985  50.61999893
H    23.53339767  11.86798668  51.56459808
H    18.90999985  13.27000046  52.50999832
H    17.36999893  11.52999973  48.13000107
H    19.71999931  11.11999989  47.54000092
H    22.13999939  10.65999985  48.43999863
H    21.21000099  12.77999973  52.02000046
H    12.97000027  13.92000008  51.95000076
H    23.50000000  10.34999943  50.70999908
H    23.85000038  11.92999935  49.86000061
S    12.03999996  12.64000034  47.37999725
C     9.39999962  13.10999966  48.20999908
C    10.72999954  13.07999992  48.50000000
C    11.25000000  13.45999908  49.75999832
C    10.36000061  13.94000053  50.72000122
C     9.01000023  14.00000000  50.52000046
C     8.14000034  14.44000053  51.45999908
C     6.72999954  14.57999992  51.25000000
C     6.26999950  14.07999992  50.06000137
C     7.09000015  13.50000000  49.12000275
C     8.50000000  13.57999992  49.26000214
C    12.68000031  13.28999996  49.89999771
C    13.26000023  12.84999943  48.68000031
C    14.67000008  12.48999977  48.61000061
C     4.88000011  14.55000019  49.56999969
H     4.70107555  14.14205265  48.57518005
H     8.89999962  12.77999973  47.30999756
H    10.67999935  13.96999931  51.76000214
H     8.51000023  15.10000038  52.23999786
H     6.25999975  15.42000008  51.75000000
H     6.89000034  13.15000057  48.11000061
H    15.06000042  12.13999939  47.65999603
H     4.77999973  15.64000034  49.58000183
H     4.13999987  14.19000053  50.30000305
