96

S    12.46999931  16.76000023  44.01000214
C     9.81999969  17.20000076  44.73999786
C    11.03000069  16.68000031  45.05000305
C    11.39000034  16.22999954  46.38999939
C    10.34999943  16.21999931  47.32999802
C     9.06999969  16.67000008  47.00000000
C     8.02999973  16.64999962  47.97000122
C     6.84000015  17.28999901  47.69000244
C     6.57000017  17.64999962  46.38000107
C     7.48000050  17.57999992  45.38999939
C     8.76999950  17.18000031  45.70000076
C    12.84999943  16.18000031  46.59000015
C    13.52000046  16.46999931  45.34999847
C    14.96000099  16.51000023  45.30000305
C     5.15999985  18.04000092  46.00000000
H     4.79305792  17.44840050  45.16127396
H     9.68999958  17.64999962  43.75999832
H    10.47999954  15.86999989  48.34999847
H     8.23000050  16.31999969  48.97999573
H     6.12999964  17.36999893  48.50000000
H     7.27999973  18.00000000  44.40999985
H    15.47000027  16.63999939  44.34999847
H     4.51999998  17.89999962  46.88000107
H     5.10999966  19.11000061  45.79999924
S    16.06999969  15.31000042  48.89999771
C    18.71999931  15.00000000  48.11000061
C    17.45000076  15.36000061  47.74000168
C    17.07999992  15.88000107  46.49000168
C    18.04000092  15.81999969  45.56000137
C    19.37000084  15.29000092  45.84999847
C    20.45000076  15.32999992  44.93999863
C    21.77000046  15.01000023  45.27000046
C    22.06999969  14.72000027  46.63000107
C    21.09999847  14.84000015  47.61000061
C    19.72999954  15.07999992  47.19999695
C    15.70000076  16.21000099  46.40999603
C    15.00000000  15.84000015  47.60000229
C    13.63000011  15.85000038  47.75000000
C    23.52999878  14.32999992  47.02999878
H    23.77763367  14.54225731  48.07005692
H    19.04999924  14.56999969  49.06000137
H    17.71000099  16.13000107  44.56999969
H    20.29999924  15.64000034  43.90999603
H    22.56999969  15.14999962  44.54999924
H    21.34000015  14.68999958  48.66000366
H    13.14000034  15.67999935  48.70999908
H    24.15999985  14.88000011  46.31999969
H    23.65999985  13.27000046  46.76000214
S    12.05999947  17.05999947  50.84999847
C     9.35000038  17.46999931  51.52000046
C    10.59999943  17.05999947  51.81999969
C    10.95999908  16.53000069  53.08000183
C     9.98000050  16.38000107  54.06999969
C     8.67999935  16.84999847  53.80000305
C     7.68000031  16.70999908  54.72999954
C     6.39999962  17.06999969  54.52999878
C     6.05000019  17.70000076  53.30999756
C     7.05999947  17.86000061  52.35000229
C     8.38000011  17.42000008  52.54000092
C    12.43999958  16.29999924  53.30999756
C    13.17999935  16.60000038  52.14000320
C    14.55000019  16.61999893  52.01000214
C     4.61999989  18.22999954  53.01000214
H     4.16037846  17.58798981  52.25855637
H     9.06999969  17.73999977  50.50000000
H    10.36999893  15.95000076  54.99000168
H     7.88000011  16.21999931  55.68000031
H     5.60999966  16.90000153  55.25000000
H     6.71999979  18.30000114  51.40999603
H    15.03999901  16.87999916  51.07999802
H     4.15000010  18.29000092  54.01000214
H     4.65999985  19.22000122  52.54000092
S    15.57000065  15.13000011  55.58000183
C    18.19000053  14.93999958  54.99000168
C    16.97000122  15.46000004  54.59999847
C    16.76000023  16.06999969  53.34999847
C    17.73999977  16.05999947  52.38999939
C    19.06999969  15.67000008  52.75000000
C    20.13999939  15.80000019  51.84999847
C    21.35000038  15.19999981  52.09999847
C    21.53000069  14.55999947  53.33000183
C    20.52000046  14.42999935  54.29999924
C    19.26000023  15.03000069  54.06000137
C    15.36000061  16.28999901  53.15999985
C    14.60999966  15.88999939  54.36999893
C    13.22999954  15.97000027  54.45000076
C    22.93999863  14.06999969  53.74000168
H    23.16974640  14.44333935  54.73796463
H    18.35000038  14.34999943  55.90000153
H    17.64000130  16.40999985  51.37000275
H    19.93000031  16.31000137  50.90999985
H    22.11999893  15.29000092  51.32999802
H    20.76999855  13.94999981  55.24000168
H    12.64000034  15.69000053  55.31999969
H    23.64999962  14.52999973  53.04000092
H    23.09000015  12.97999954  53.68999863
