96

S    12.32999992  17.02999878  44.13999939
C     9.71000004  17.18000031  44.73999786
C    10.93999958  16.76000023  45.10000229
C    11.26999950  16.21999931  46.38999939
C    10.27999973  16.07999992  47.34000397
C     8.97999954  16.51000023  47.08000183
C     7.88000011  16.51000023  48.04000092
C     6.60000038  16.90000153  47.68000031
C     6.35999966  17.51000023  46.40999603
C     7.40000010  17.60000038  45.45000076
C     8.73000050  17.13000107  45.79000092
C    12.67000008  16.31000137  46.58000183
C    13.40999985  16.76000023  45.52999878
C    14.78000069  16.72999954  45.45000076
C     4.99000025  18.01000023  46.17000198
H     4.48292875  17.42545891  45.40234756
H     9.48999977  17.65999985  43.77999878
H    10.52000046  15.77000046  48.34999847
H     8.01000023  16.23999977  49.09000015
H     5.78999996  16.84999847  48.40000153
H     7.18999958  18.05999947  44.47999954
H    15.38000011  16.82999992  44.54999924
H     4.35999966  18.11000061  47.05999756
H     5.09000015  19.04999924  45.84000015
S    15.77999973  15.54999924  49.15999985
C    18.38999939  14.89999962  48.34999847
C    17.20999908  15.47999954  48.09000015
C    16.90000153  16.04999924  46.79999924
C    17.89999962  16.20000076  45.87999725
C    19.19999886  15.64000034  46.19999695
C    20.13000107  15.76000023  45.18000031
C    21.34000015  15.21000004  45.45000076
C    21.67000008  14.60999966  46.73999786
C    20.65999985  14.42999935  47.64999771
C    19.45999908  14.96000099  47.43000031
C    15.44000053  16.34000015  46.60999680
C    14.73999977  16.00000000  47.77000046
C    13.34000015  15.95999908  47.77000046
C    23.11000061  14.19999981  47.01000214
H    23.40084839  14.59264469  47.98434067
H    18.48999977  14.40000057  49.31000137
H    17.68000031  16.48999977  44.86000061
H    19.85000038  16.38000107  44.33000183
H    22.13000107  15.24000072  44.69999695
H    20.81999969  14.00000000  48.62999725
H    12.74000072  15.55999947  48.57999802
H    23.92000008  14.55000019  46.36000061
H    23.03999901  13.10999966  46.95999908
S    11.96000004  16.97999954  50.83000183
C     9.34000015  17.53000069  51.62000275
C    10.59000015  17.05000114  51.90999985
C    10.93000031  16.62999916  53.26000214
C    10.03000069  16.79000092  54.26000214
C     8.69999981  17.15999985  53.95999908
C     7.72000027  17.11000061  54.93999863
C     6.44000006  17.38999939  54.72000122
C     6.05000019  17.80999947  53.47999954
C     6.94000006  17.97000122  52.43999863
C     8.30000019  17.48999977  52.60000229
C    12.41000080  16.42000008  53.41999817
C    13.05999947  16.61999893  52.21000290
C    14.46000004  16.72000122  52.18000031
C     4.65999985  18.09000015  53.22999954
H     4.37483215  17.51966286  52.34597778
H     9.02999973  18.04000092  50.70999908
H    10.29999924  16.34000015  55.20999908
H     8.07999992  16.93000031  55.94999695
H     5.72000027  17.46000099  55.52999878
H     6.84000015  18.42000008  51.45000076
H    15.08999920  16.77999878  51.29000092
H     4.09000015  17.81999969  54.13000107
H     4.48000002  19.12999916  52.93000031
S    15.50000000  15.82999992  55.86999893
C    18.07999992  15.29000092  55.20000076
C    16.86000061  15.80000019  54.87999725
C    16.62999916  16.15999985  53.54000092
C    17.61000061  16.10000038  52.50999832
C    18.93000031  15.65000057  52.88000107
C    20.02000046  15.43000031  51.93000031
C    21.28000069  15.19000053  52.45999908
C    21.47000122  14.73999977  53.77999878
C    20.40999985  14.80000019  54.68999863
C    19.14999962  15.15999985  54.27999878
C    15.24000072  16.36000061  53.34000015
C    14.53999996  16.11999893  54.47999954
C    13.17000008  16.20000076  54.54999924
C    22.86999893  14.28999996  54.20000076
H    23.13262367  14.84364414  55.10144806
H    18.23999977  14.80999947  56.17000198
H    17.46999931  16.20000076  51.44000244
H    19.81999969  15.47000027  50.86000061
H    22.13000107  15.17000008  51.79000092
H    20.43000031  14.57999992  55.76000214
H    12.71999931  16.14999962  55.52999878
H    23.61999893  14.40000057  53.40999985
H    22.79999924  13.25000000  54.52999878
