96

S    12.28000069  16.87999916  44.31000137
C     9.71000004  17.36999893  45.00999832
C    10.95999908  17.14999962  45.40999985
C    11.28000069  16.84000015  46.81000137
C    10.24000072  16.61999893  47.64999771
C     8.89999962  16.90000153  47.29000092
C     7.77999973  16.75000000  48.13999939
C     6.52999973  17.17000008  47.74000168
C     6.28999996  17.76000023  46.50000000
C     7.30000019  17.73999977  45.59999847
C     8.63000011  17.30999947  45.93999863
C    12.68000031  16.60000038  46.86999893
C    13.35999966  16.65999985  45.65999985
C    14.75000000  16.60000038  45.54000092
C     4.92999983  18.12000084  45.97999954
H     4.57360792  17.53551674  45.13178635
H     9.48999977  17.65999985  43.99000168
H    10.39000034  16.40999985  48.70999908
H     7.92999983  16.32999992  49.13000107
H     5.73999977  17.04000092  48.47000122
H     7.03999996  18.04000092  44.59000015
H    15.26000023  16.73999977  44.59000015
H     4.15000010  17.98999977  46.73999786
H     4.86999989  19.19999886  45.79999924
S    15.80999947  15.69000053  49.33000183
C    18.44000053  15.21999931  48.52000427
C    17.14999962  15.53999996  48.18999863
C    16.90999985  15.95000076  46.86999893
C    17.89999962  15.90999985  45.90999985
C    19.23999977  15.53999996  46.18999863
C    20.36000061  15.57999992  45.24000168
C    21.56999969  15.14999962  45.72000122
C    21.81999969  14.75000000  47.09000015
C    20.86000061  14.82999992  48.06000137
C    19.51000023  15.14999962  47.56999969
C    15.48999977  16.28999901  46.75000000
C    14.78000069  16.11999893  48.00000000
C    13.43000031  16.39999962  48.04000092
C    23.25000000  14.35999966  47.50000000
H    23.51339531  14.86599541  48.42881012
H    18.61999893  14.80999947  49.52000046
H    17.75000000  16.29999924  44.91000366
H    20.13000107  15.84000015  44.20999908
H    22.30999947  15.05000019  44.92000198
H    21.04999924  14.78999996  49.13000107
H    12.94999981  16.54999924  49.00000000
H    23.98999977  14.59000015  46.72000122
H    23.22999954  13.27000046  47.65999603
S    15.93000031  13.38999939  52.29000092
C    18.61999893  12.86000061  51.56000137
C    17.27000046  12.76999950  51.30000305
C    16.69999886  12.20999908  50.06000137
C    17.67000008  11.87999916  49.06000137
C    19.03000069  12.00000000  49.34000015
C    19.95000076  11.51000023  48.40000153
C    21.21999931  11.26999950  48.75999832
C    21.73000145  11.65999985  50.02999878
C    20.94000053  12.42000008  50.81999969
C    19.51000023  12.46999931  50.59000015
C    15.21999931  12.35999966  49.94999695
C    14.63999939  12.93000031  51.11999893
C    13.30999947  13.35000038  51.12999725
C    23.05999947  11.14999962  50.44000244
H    23.43858528  11.61271667  51.35140991
H    18.92000008  13.28999996  52.51999664
H    17.35999870  11.44000053  48.11000061
H    19.55999947  11.11999989  47.45999908
H    21.88999939  10.75000000  48.08000183
H    21.30000114  12.84000015  51.75000000
H    12.89000034  13.86000061  51.98999786
H    22.84000015  10.11000061  50.72999954
H    23.71000099  11.21999931  49.55999756
S    11.84999943  12.39999962  47.49000168
C     9.22000027  13.02999973  48.34000015
C    10.57999992  13.04999924  48.59000397
C    11.05999947  13.40000057  49.86000061
C    10.17000008  13.78999901  50.86000061
C     8.78999996  13.81999969  50.61999893
C     7.81000042  14.23999977  51.58000183
C     6.48999977  14.52999973  51.18999863
C     5.98000002  14.01999950  49.93999863
C     6.89000034  13.47000027  49.01000214
C     8.31999969  13.38999939  49.34999847
C    12.48000050  13.10999966  49.98000336
C    13.03999996  12.58999920  48.77999878
C    14.39000034  12.17000008  48.77999878
C     4.59000015  14.32000065  49.52000046
H     4.50751209  13.97630024  48.48889923
H     8.89000034  12.84999943  47.31999969
H    10.46000004  13.86999989  51.90999985
H     8.17000008  14.61999989  52.54000092
H     5.88000011  15.15999985  51.84000015
H     6.61999989  13.22000027  47.97999954
H    14.78999996  11.75000000  47.85999680
H     4.33999968  15.38000011  49.43999863
H     3.81000018  13.83999920  50.12000275
