96

S    12.43999958  17.21999931  44.34000015
C     9.75000000  17.51000023  44.91000366
C    11.00999928  17.10000038  45.34999847
C    11.38000011  16.62999916  46.66999817
C    10.34999943  16.60000038  47.57999802
C     9.06000042  17.01000023  47.22000122
C     7.97999954  16.90000153  48.09000015
C     6.70000029  17.46000099  47.78999710
C     6.39999962  17.94000053  46.47999573
C     7.42999983  17.97000122  45.54999924
C     8.71000004  17.46999931  45.90999985
C    12.84999943  16.61999893  46.86999893
C    13.59000015  16.76000023  45.63999939
C    14.98000050  16.77000046  45.58000183
C     4.96000004  18.26000023  46.09000397
H     4.69745445  17.65890884  45.21945190
H     9.65999985  18.27000046  44.13999939
H    10.43000031  16.00000000  48.47999954
H     8.19000053  16.40999985  49.03999710
H     5.88999987  17.27000046  48.47999954
H     7.26000023  18.34000015  44.54999924
H    15.36000061  17.01000023  44.59000015
H     4.23999977  17.93000031  46.84999847
H     4.88000011  19.32999992  45.86000061
S    16.14999962  15.84000015  49.36000061
C    18.73999977  15.31000042  48.47999954
C    17.46000099  15.72000027  48.20999908
C    17.13999939  16.13000107  46.88999939
C    18.09000015  16.11999893  45.83000183
C    19.40000153  15.65999985  46.05999756
C    20.45000076  15.67999935  45.08999634
C    21.70000076  15.27999973  45.40000153
C    21.98999786  14.77000046  46.72999954
C    20.97999954  14.68000031  47.70999908
C    19.70000076  15.27999973  47.43999863
C    15.71000004  16.45000076  46.75000000
C    14.96000099  16.27000046  47.98999786
C    13.55999947  16.32999992  48.02000046
C    23.43000031  14.47999954  47.11000061
H    23.66405487  15.04740810  48.01075745
H    19.09000015  14.85000038  49.40000153
H    17.75000000  16.31999969  44.81999969
H    20.30999947  16.09000015  44.09999847
H    22.46999931  15.36000061  44.64000320
H    21.07000160  14.17000008  48.67000198
H    13.09999943  16.22999954  48.99000168
H    24.05999947  14.88000011  46.31000137
H    23.64000130  13.40000057  47.09000015
S    16.04999924  13.21000004  52.45999908
C    18.78999901  12.55000019  51.63999939
C    17.40999985  12.53000069  51.38000107
C    16.93000031  12.11999989  50.14999771
C    17.81999969  11.80999947  49.13000107
C    19.22999954  11.80999947  49.27999878
C    20.23999977  11.43000031  48.26000214
C    21.53000069  11.38000011  48.62999725
C    22.00000000  11.69999981  49.94999695
C    21.04000092  12.05000019  50.90000153
C    19.70999908  12.06999969  50.63999939
C    15.52999973  12.34000015  50.00999832
C    14.96999931  13.00000000  51.11000061
C    13.68000031  13.53000069  51.04000092
C    23.45000076  11.38000011  50.27000046
H    23.59998703  11.33000469  51.34847260
H    19.29999924  12.90999985  52.51999664
H    17.42000008  11.52999973  48.15999985
H    19.95000076  11.25000000  47.22999954
H    22.11999893  10.85000038  47.88000107
H    21.28999901  12.30999947  51.91999817
H    13.26000023  14.11000061  51.86000061
H    23.80000114  10.46000004  49.78000259
H    24.09000015  12.20999908  49.97000122
S    12.25000000  12.35999966  47.54000092
C     9.61999989  13.03999996  48.09999847
C    10.97000027  13.10999966  48.40999985
C    11.44000053  13.57999992  49.69999695
C    10.54999924  14.04999924  50.59999847
C     9.15000057  14.00000000  50.40999985
C     8.18000031  14.47999954  51.33999634
C     6.83000040  14.51000023  51.07999802
C     6.37000036  13.99000072  49.81999969
C     7.23999977  13.43999958  48.88000107
C     8.65999985  13.45000076  49.09999847
C    12.86999893  13.30000019  49.82999802
C    13.45999908  12.69999981  48.74000168
C    14.82999992  12.25000000  48.76999664
C     4.86999989  14.22000027  49.43000031
H     4.58183336  13.66475201  48.53738785
H     9.19999981  12.46000099  47.28000259
H    10.81999969  14.42999935  51.58000183
H     8.55000019  14.98999977  52.22000122
H     6.19000006  15.06000042  51.77000046
H     6.85999966  13.04999924  47.94000244
H    15.29999924  11.73999977  47.93000031
H     4.81999969  15.27999973  49.15000153
H     4.18000031  14.14000034  50.27000046
