96

S    12.10999966  16.51000023  44.13000107
C     9.44999981  17.04000092  44.92000198
C    10.77999973  16.63999939  45.25000000
C    11.11999989  16.18000031  46.56999969
C    10.14000034  16.18999863  47.55000305
C     8.80000019  16.55999947  47.28000259
C     7.85000038  16.92000008  48.27000046
C     6.67000008  17.32999992  47.87000275
C     6.21000004  17.38000107  46.51000214
C     7.13999987  17.35000038  45.52000046
C     8.48999977  16.97000122  45.86000061
C    12.50000000  15.98000050  46.66999817
C    13.25000000  16.18000031  45.41999817
C    14.65000057  16.18000031  45.34999847
C     4.73000002  17.76000023  46.25000000
H     4.29224491  17.14714241  45.46204376
H     9.26999950  17.28999901  43.88000107
H    10.53999996  16.06999969  48.54999924
H     8.10999966  16.75000000  49.31999969
H     5.96000004  17.54999924  48.66000366
H     6.89000034  17.81999969  44.56999969
H    15.11000061  16.44000053  44.40000153
H     4.25000000  17.59000015  47.22000122
H     4.59999990  18.82999992  46.04000092
S    15.62999916  15.19999981  48.95999908
C    18.37000084  15.07999992  48.25000000
C    17.13000107  15.38000011  47.95000076
C    16.76000023  15.86999989  46.69000244
C    17.64999962  16.13000107  45.72000122
C    18.96000099  15.76000023  45.97000122
C    19.96999931  15.81999969  45.00000000
C    21.27000046  15.53999996  45.35999680
C    21.65999985  15.03000069  46.70000076
C    20.69999886  14.80000019  47.58999634
C    19.36000061  15.22999954  47.25000000
C    15.34999943  15.95999908  46.52999878
C    14.56999969  15.67000008  47.65999603
C    13.23999977  15.67000008  47.80000305
C    23.12000084  14.80000019  46.97000122
H    23.38527107  15.05810165  47.99523926
H    18.55999947  14.45000076  49.12000275
H    17.38999939  16.32999992  44.68999863
H    19.76000023  16.17000008  43.99000168
H    22.06999969  15.67999935  44.64000320
H    20.84000015  14.44000053  48.60000229
H    12.76999950  15.51000023  48.76999664
H    23.80000114  15.24000072  46.23000336
H    23.31999969  13.73000050  46.88000107
S    16.04999924  13.09000015  52.16999817
C    18.61999893  12.44999981  51.25999832
C    17.26000023  12.35000038  51.14999771
C    16.75000000  11.64000034  50.04000092
C    17.57999992  11.23000050  49.02999878
C    18.93000031  11.42000008  49.13999939
C    19.79999924  10.97000027  48.13000107
C    21.18000031  10.98999977  48.29999924
C    21.73000145  11.54000092  49.51000214
C    20.88999939  12.10999966  50.47999954
C    19.52000046  12.01000023  50.24000168
C    15.31000042  11.80999947  49.94999695
C    14.77000046  12.53000069  51.02000427
C    13.43999958  12.94000053  51.03000259
C    23.16999817  11.25000000  49.86000061
H    23.38563347  11.41358376  50.91586304
H    19.10000038  12.64000034  52.22000122
H    17.25000000  10.98000050  48.02999878
H    19.38999939  10.59999943  47.19999695
H    21.73000145  10.44999981  47.52999878
H    21.11999893  12.51999950  51.45999908
H    13.03999996  13.40999985  51.93000031
H    23.32999992  10.19999981  49.61999893
H    23.88999939  11.89000034  49.33000183
S    11.97999954  12.02000046  47.44999695
C     9.35000038  12.65999985  48.20000076
C    10.67999935  12.63000011  48.50000000
C    11.16000080  13.02000046  49.81999969
C    10.22999954  13.40000057  50.79000092
C     8.82999992  13.34000015  50.61000061
C     7.92000008  13.96999931  51.49000168
C     6.63999987  14.23999977  51.11000061
C     6.12999964  13.73000050  49.89999771
C     7.03000021  13.20000076  48.96999741
C     8.42000008  12.96000004  49.27000046
C    12.61999989  12.74000072  49.92000198
C    13.17999935  12.10999966  48.76999664
C    14.53999996  11.72000027  48.76999664
C     4.67999983  14.04000092  49.51000214
H     4.38167572  13.58541107  48.56530762
H     9.00000000  12.61000061  47.16999817
H    10.59000015  13.67000008  51.77999878
H     8.25000000  14.27999973  52.48000336
H     6.00000000  14.75000000  51.83000183
H     6.76000023  13.17999935  47.91999817
H    15.03000069  11.35000038  47.87000275
H     4.76000023  15.13000011  49.38000107
H     4.02999973  13.71000099  50.33000183
