96

S    12.46000099  17.42000008  44.38000107
C     9.73999977  17.76000023  45.28999710
C    11.00999928  17.29999924  45.52999878
C    11.38000011  16.70999908  46.77000046
C    10.31000042  16.59000015  47.70999908
C     9.02000046  17.17000008  47.57999802
C     8.01000023  17.25000000  48.61999893
C     6.76000023  17.86000061  48.27999878
C     6.48000002  18.29000092  46.98999786
C     7.44000006  18.26000023  46.04000092
C     8.69999981  17.72999954  46.29000092
C    12.79999924  16.60000038  46.93999863
C    13.48000050  16.92000008  45.70000076
C    14.88000011  16.76000023  45.59999847
C     5.09999990  18.52000046  46.56999969
H     4.77468920  17.79866028  45.82037354
H     9.63000011  18.42000008  44.43000031
H    10.57000065  16.09000015  48.63999939
H     8.10000038  16.81999969  49.61000061
H     6.00000000  17.71999931  49.03999710
H     7.30999994  18.53000069  44.99000168
H    15.42000008  16.94000053  44.66999817
H     4.42999983  18.38000107  47.43000031
H     4.92000008  19.54000092  46.19999695
S    15.98999977  16.01000023  49.29000092
C    18.63999939  15.36000061  48.55999756
C    17.38999939  15.77999973  48.22999954
C    17.05000114  16.18000031  46.93000031
C    18.04999924  16.25000000  46.03000259
C    19.34000015  15.84000015  46.30000305
C    20.38000107  15.93999958  45.33000183
C    21.65999985  15.39999962  45.56999969
C    22.01000023  15.01999950  46.88000107
C    21.02999878  15.03000069  47.85999680
C    19.65999985  15.43000031  47.58999634
C    15.59999943  16.36999893  46.72999954
C    14.92000008  16.27000046  47.95000076
C    13.55999947  16.28999901  48.09000015
C    23.42000008  14.75000000  47.22999954
H    23.74719048  15.14989758  48.18975449
H    18.89999962  14.85999966  49.50000000
H    17.84000015  16.45000076  44.98000336
H    20.20000076  16.46000099  44.38999939
H    22.49000168  15.48999977  44.86000061
H    21.31999969  14.72000027  48.86000061
H    13.15999985  16.10999870  49.08000183
H    24.13000107  15.06999969  46.45000076
H    23.45000076  13.64999962  47.19999695
S    11.94000053  17.30999947  51.25999832
C     9.32999992  17.77000046  52.06999969
C    10.52999973  17.21999931  52.36999893
C    10.84000015  16.76000023  53.64999771
C     9.85000038  16.77999878  54.62999725
C     8.59000015  17.36999893  54.36999893
C     7.44999981  17.29999924  55.19000244
C     6.19000006  17.72999954  54.82999802
C     5.95000029  18.26000023  53.54999924
C     7.04999971  18.46999931  52.72999573
C     8.38999939  17.95999908  53.06000137
C    12.30000019  16.61999893  53.85000229
C    12.97999954  16.98999977  52.70000076
C    14.30999947  17.02000046  52.56999969
C     4.51000023  18.51000023  53.04999924
H     4.14063692  17.82197189  52.28954697
H     9.21000004  18.22999954  51.09000397
H     9.92999935  16.21000099  55.56000137
H     7.65999985  16.80999947  56.12999725
H     5.35000038  17.64000130  55.52000046
H     7.00999975  18.89000130  51.72999954
H    14.78999996  17.13000107  51.59999847
H     3.86999989  18.45999908  53.95000076
H     4.34999990  19.56999969  52.81999969
S    15.52999973  16.04999924  56.14999771
C    18.13999939  15.53999996  55.34999847
C    16.88999939  16.03999901  55.06000137
C    16.61999893  16.57999992  53.75999832
C    17.60000038  16.62999916  52.77999878
C    18.92000008  16.18000031  53.04999924
C    19.93999863  16.18000031  52.08000183
C    21.18999863  15.71000004  52.35000229
C    21.53000069  15.29000092  53.72000122
C    20.55000114  15.29000092  54.69999695
C    19.18000031  15.69000053  54.41999817
C    15.10000038  16.73999977  53.68999863
C    14.45000076  16.46999931  54.91000366
C    13.07999992  16.48999977  55.00000000
C    22.96999931  14.91000080  53.96999741
H    23.30443573  15.37963486  54.89503479
H    18.26000023  14.92000008  56.24000168
H    17.39999962  16.97000122  51.77000046
H    19.76000023  16.57999992  51.09000397
H    21.97999954  15.67000008  51.60999680
H    20.76999855  14.80999947  55.65000153
H    12.57999992  16.46000099  55.96000290
H    23.54999924  15.38000011  53.18000031
H    23.12000084  13.81999969  53.95000076
