96

S    11.97000027  16.93000031  44.43999863
C     9.39000034  17.13999939  45.20999908
C    10.65000057  16.81999969  45.59000015
C    11.09000015  16.54000092  46.88999939
C    10.11000061  16.50000000  47.85999680
C     8.78000069  16.90999985  47.55000305
C     7.75000000  17.00000000  48.54999924
C     6.58999968  17.68000031  48.22999954
C     6.25999975  18.02000046  46.84999847
C     7.21000004  17.87999916  45.89000320
C     8.45000076  17.26000023  46.20999908
C    12.56999969  16.47999954  46.95000076
C    13.22999954  16.57999992  45.70000076
C    14.60000038  16.51000023  45.61000061
C     5.00000000  18.55999947  46.38999939
H     4.66456699  18.00094604  45.51647568
H     9.10000038  17.48999977  44.22999954
H    10.36000061  16.21000099  48.88000107
H     7.88999987  16.69999886  49.59000015
H     5.92000008  17.97000122  49.03999710
H     7.20000029  18.20999908  44.85000229
H    15.11999989  16.46999931  44.65999985
H     4.25000000  18.55999947  47.18999863
H     5.17000008  19.61000061  46.11999893
S    15.86999989  15.57999992  49.10999680
C    18.45999908  15.11999989  48.37999725
C    17.22999954  15.71000004  48.06999969
C    16.86000061  16.18999863  46.79000092
C    17.82999992  16.28000069  45.77000046
C    19.12999916  15.67999935  46.05999756
C    20.27000046  15.86999989  45.19000244
C    21.47999954  15.39999962  45.56000137
C    21.70999908  14.75999928  46.86000061
C    20.66999817  14.63000107  47.67000198
C    19.40000153  15.08999920  47.32999802
C    15.42000008  16.46000099  46.69000244
C    14.75999928  16.20000076  47.90999985
C    13.32999992  16.22999954  48.09999847
C    23.06999969  14.21000004  47.22999954
H    23.39919472  14.76597214  48.10785294
H    18.54999924  14.52999973  49.29000092
H    17.67000008  16.68000031  44.77000427
H    20.12000084  16.31999969  44.20999908
H    22.27999878  15.50000000  44.82999802
H    20.84000015  14.35999966  48.70999908
H    12.82999992  16.03999901  49.03999710
H    23.78000069  14.42999935  46.42000198
H    23.12999916  13.12000084  47.36999893
S    16.28000069  13.14000034  52.30999756
C    18.78999901  12.53000069  51.39999771
C    17.47999954  12.51000023  51.16000366
C    16.95999908  12.03999996  49.92000198
C    17.80999947  11.71000004  48.85000229
C    19.20999908  11.61999893  49.12000275
C    20.17999840  11.21999931  48.18999863
C    21.52000046  11.09000015  48.48999786
C    21.94999886  11.39000034  49.75999832
C    21.04000092  11.97000027  50.65000153
C    19.64999962  12.01000023  50.44000244
C    15.50000000  12.36999989  49.93999863
C    14.96999931  12.81000042  51.14999771
C    13.63999939  13.22000027  51.26999664
C    23.28000069  10.90000057  50.26000214
H    23.57269096  11.29977512  51.23088455
H    19.13999939  12.81000042  52.38999939
H    17.50000000  11.51999950  47.83000183
H    19.77000046  10.86999989  47.25000000
H    22.21999931  10.72000027  47.75000000
H    21.45000076  12.32999992  51.59000015
H    13.14000034  13.56999969  52.16999817
H    23.19999886   9.81000042  50.30000305
H    23.95000076  11.13000011  49.41999817
S    12.25999928  12.88000011  47.50999832
C     9.59000015  13.07000065  48.41999817
C    10.93999958  13.09999943  48.67000198
C    11.40999985  13.31999969  50.04000092
C    10.52999973  13.71000099  51.02000427
C     9.11999989  13.76999950  50.76000214
C     8.19999981  14.28999996  51.66999817
C     6.83000040  14.40000057  51.45000076
C     6.37000036  14.06999969  50.11000061
C     7.23000002  13.53999996  49.22000122
C     8.61999989  13.42000008  49.45999908
C    12.82999992  13.07000065  50.13000107
C    13.45000076  12.72999954  48.88000107
C    14.80000019  12.36999989  48.80000305
C     5.00999975  14.53999996  49.65999985
H     4.72456932  14.15942574  48.67929077
H     9.17000008  12.88000011  47.43999863
H    10.88000107  13.97999954  52.01000214
H     8.63000011  14.70000076  52.57999802
H     6.06999969  14.78999996  52.11000061
H     6.89000034  13.45999908  48.18999863
H    15.32999992  12.06999969  47.90999985
H     5.03000021  15.64000034  49.59999847
H     4.30999994  14.22000027  50.44000244
