96

S    12.28000069  17.10000038  44.27999878
C     9.57999992  17.04000092  44.79999924
C    10.82999992  16.64999962  45.21999741
C    11.10000038  16.09000015  46.50000000
C    10.06000042  16.03000069  47.47000122
C     8.80999947  16.44000053  47.15000153
C     7.73999977  16.53000069  48.11000061
C     6.50000000  16.95000076  47.75000000
C     6.25999975  17.46999931  46.43000031
C     7.25000000  17.46999931  45.45999908
C     8.52000046  16.95000076  45.76000214
C    12.53000069  16.13000107  46.73999786
C    13.27000046  16.57999992  45.59000015
C    14.70000076  16.54999924  45.47000122
C     4.94000006  18.12000084  46.04000092
H     4.46228075  17.60073853  45.20918655
H     9.31999969  17.35000038  43.79000092
H    10.19000053  15.67000008  48.48999786
H     7.92999983  16.26000023  49.15000153
H     5.68000031  17.01000023  48.46000290
H     7.07000017  17.95999908  44.51000214
H    15.24000072  16.48999977  44.52999878
H     4.19000006  18.12000084  46.83000183
H     5.21000004  19.17000008  45.83000183
S    15.78999996  15.25000000  49.10999680
C    18.43000031  15.03000069  48.40000153
C    17.14999962  15.38000011  47.95999908
C    16.84000015  15.90000057  46.72000122
C    17.86999893  16.10999870  45.77000046
C    19.11000061  15.67000008  46.12999725
C    20.20999908  15.71000004  45.18000031
C    21.47999954  15.31999969  45.50000000
C    21.83000183  14.94999981  46.84000015
C    20.88999939  14.93999958  47.77000046
C    19.47999954  15.15999985  47.43999863
C    15.39999962  16.13999939  46.62000275
C    14.65999985  15.73999977  47.80000305
C    13.27000046  15.64000034  47.81000137
C    23.26999855  14.75000000  47.22000122
H    23.44556999  15.10114098  48.23684692
H    18.63999939  14.55000019  49.34999847
H    17.67000008  16.57999992  44.80999756
H    20.06999969  16.13999939  44.19000244
H    22.29000092  15.55999947  44.80999756
H    21.04999924  14.75000000  48.82999802
H    12.77999973  15.26999950  48.69999695
H    23.77000046  15.34999943  46.44000244
H    23.50000000  13.68000031  47.14000320
S    16.10999870  12.81000042  52.49000168
C    18.78999901  12.58999920  51.65999985
C    17.46000099  12.32999992  51.45000076
C    16.98999977  11.94000053  50.15999603
C    17.93000031  11.49000072  49.22999954
C    19.37000084  11.64000034  49.47999954
C    20.31999969  11.23000050  48.59000397
C    21.61000061  11.16000080  48.93000031
C    22.07999992  11.68000031  50.13999939
C    21.14000130  12.13999939  51.06999969
C    19.73999977  12.17000008  50.70999908
C    15.50000000  12.13999939  50.01999664
C    14.91000080  12.65999985  51.22000122
C    13.63999939  13.21000004  51.20999908
C    23.50000000  11.46000004  50.52999878
H    23.75177956  11.69079971  51.56510162
H    19.25000000  12.92000008  52.58999634
H    17.57999992  11.16000080  48.25000000
H    19.92000008  10.80999947  47.67000198
H    22.29000092  10.65000057  48.25000000
H    21.31999969  12.53000069  52.05999756
H    13.22000027  13.59000015  52.12999725
H    23.78000069  10.44999981  50.18000031
H    23.97999954  12.17000008  49.85000229
S    12.15000057  12.02000046  47.75000000
C     9.55000019  12.51000023  48.50999832
C    10.88999939  12.71000004  48.68000031
C    11.39999962  13.21000004  49.91000366
C    10.53999996  13.56999969  50.93999863
C     9.11000061  13.60999966  50.66999817
C     8.11999989  14.19999981  51.53999710
C     6.83000040  14.19999981  51.25999832
C     6.42000008  13.50999928  50.10000229
C     7.27999973  13.02999973  49.16999817
C     8.65999985  12.98999977  49.51000214
C    12.86999893  13.07999992  50.01999664
C    13.40000057  12.43999958  48.89999771
C    14.73999977  11.92999935  48.88000107
C     4.92999983  13.53999996  49.93000031
H     4.64173841  13.24487495  48.92108536
H     9.19000053  12.05000019  47.58999634
H    10.88999939  13.94999981  51.88999939
H     8.47999954  14.57999992  52.49000168
H     6.19000006  14.75999928  51.93000031
H     6.98000002  12.60000038  48.22000122
H    15.11999989  11.43000031  48.00000000
H     4.63000011  14.59000015  50.06000137
H     4.48000002  12.97000027  50.75000000
