96

S    12.41000080  16.57999992  44.13999939
C     9.86999989  17.07999992  45.00999832
C    11.11999989  16.60000038  45.28999710
C    11.47999954  16.07999992  46.56000137
C    10.44999981  15.97000027  47.50000000
C     9.18000031  16.50000000  47.19999695
C     8.13000011  16.53000069  48.20999908
C     6.85999966  16.97000122  47.88000107
C     6.57999992  17.56000137  46.59000015
C     7.59999990  17.61000061  45.65000153
C     8.88000011  17.17000008  45.97000122
C    12.89999962  15.95999908  46.65999985
C    13.53999996  16.15999985  45.41999817
C    14.89999962  16.27000046  45.31999969
C     5.23000002  18.09000015  46.20999908
H     4.80322456  17.35941887  45.52281952
H     9.64999962  17.38000107  43.99000168
H    10.70000076  15.77000046  48.54000092
H     8.30999947  16.13999939  49.20999908
H     6.07999992  16.84000015  48.62999725
H     7.36000013  17.97000122  44.65000153
H    15.32999992  16.61000061  44.38000107
H     4.61999989  18.22000122  47.11000061
H     5.31000042  19.07999992  45.72999954
S    16.15999985  15.29999924  49.00000000
C    18.84000015  14.78999996  48.25000000
C    17.53999901  15.29999924  47.93000031
C    17.20999908  15.67999935  46.59000015
C    18.19000053  15.67999935  45.63000107
C    19.47999954  15.25000000  45.90000153
C    20.52000046  15.39999962  44.93000031
C    21.84999847  15.00000000  45.31999969
C    22.11000061  14.51000023  46.63999939
C    21.07999992  14.34999943  47.54000092
C    19.77000046  14.72000027  47.21000290
C    15.75000000  15.98999977  46.43000031
C    15.07999992  15.75000000  47.62000275
C    13.69999981  15.80000019  47.78999710
C    23.54000092  14.21000004  46.95999908
H    23.71681976  14.38682079  48.02092743
H    19.17000008  14.55000019  49.25000000
H    17.94000053  16.07999992  44.65000153
H    20.34000015  15.82999992  43.95000076
H    22.72000122  15.25000000  44.71000290
H    21.14999962  13.96000004  48.54999924
H    13.28999996  15.76000023  48.80000305
H    24.13999939  14.82999992  46.29000092
H    23.62999916  13.17999935  46.60999680
S    11.94000053  16.87999916  50.79000092
C     9.50000000  17.56000137  51.72999954
C    10.72000027  17.05999947  51.98999786
C    11.11999989  16.63999939  53.29999924
C    10.10000038  16.59000015  54.27000046
C     8.85999966  17.19000053  54.03999710
C     7.82999992  17.25000000  55.06000137
C     6.52999973  17.54999924  54.72000122
C     6.23000050  17.97999954  53.43000031
C     7.17999983  18.01000023  52.44999695
C     8.50000000  17.56999969  52.70000076
C    12.48000050  16.27000046  53.36000061
C    13.04999924  16.27000046  52.05999756
C    14.40999985  16.21999931  52.01000214
C     4.80999994  18.31999969  53.08000183
H     4.47765541  17.61918640  52.31416321
H     9.23999977  17.86000061  50.70999908
H    10.32999992  16.29999924  55.30000305
H     8.10000038  16.77999878  56.00000000
H     5.73000002  17.46999931  55.45000076
H     6.91999960  18.11000061  51.39999771
H    14.85999966  16.56999969  51.07999802
H     4.21999979  18.22000122  54.00000000
H     4.67999983  19.36000061  52.76000214
S    15.64000034  15.48999977  55.73999786
C    18.29000092  15.21000004  55.00000000
C    17.00000000  15.51000023  54.68000031
C    16.60000038  15.80000019  53.31999969
C    17.64999962  15.93999958  52.43000031
C    18.97999954  15.80999947  52.77000046
C    20.07999802  15.85999966  51.84999847
C    21.37000084  15.47999954  52.15000153
C    21.64999962  14.88999939  53.43000031
C    20.65999985  14.80999947  54.38999939
C    19.37999916  15.26000023  54.09999847
C    15.14999962  15.95000076  53.13999939
C    14.53999996  15.72999954  54.40000153
C    13.22000027  15.86999989  54.54000092
C    22.98000145  14.32999992  53.81999969
H    23.32198334  14.81023026  54.73680115
H    18.50000000  14.80000019  55.98999786
H    17.53999901  16.10999870  51.37000275
H    19.86999893  15.98999977  50.79999924
H    22.15999985  15.50000000  51.40999603
H    20.86000061  14.30999947  55.33000183
H    12.71000004  15.76000023  55.48999786
H    23.64000130  14.57999992  52.97999954
H    22.93000031  13.23999977  53.90999603
