96

S    12.68000031  16.52000046  44.16999817
C    10.01999950  17.05999947  45.08999634
C    11.25000000  16.48999977  45.25000000
C    11.71000004  16.23999977  46.56000137
C    10.76000023  16.18999863  47.60000229
C     9.39000034  16.40999985  47.36000061
C     8.30000019  16.21999931  48.29000092
C     7.00000000  16.53000069  47.95000076
C     6.75000000  17.17000008  46.72999954
C     7.69999981  17.29999924  45.79000092
C     9.03999996  17.02000046  46.11000061
C    13.15999985  16.20000076  46.70999908
C    13.78000069  16.17000008  45.47999954
C    15.19000053  16.15999985  45.34999847
C     5.28999996  17.56999969  46.29000092
H     4.93523121  17.15007019  45.34877777
H     9.73999977  17.51000023  44.13999939
H    11.07999992  15.71000004  48.52000427
H     8.59000015  15.93000031  49.29999924
H     6.17000008  16.50000000  48.64999771
H     7.42000008  17.71000099  44.81999969
H    15.69000053  16.11999893  44.38999939
H     4.55999994  17.36999893  47.08000183
H     5.38999987  18.63999939  46.05999756
S    16.44000053  15.82999992  49.10999680
C    19.12999916  15.47000027  48.22999954
C    17.81999969  15.65999985  47.90999985
C    17.39999962  15.81999969  46.53999710
C    18.36000061  15.77999973  45.48999786
C    19.73999977  15.44999981  45.81999969
C    20.81000137  15.38000011  44.89999771
C    22.09000015  15.01999950  45.20999908
C    22.43999863  14.88000011  46.56999969
C    21.47999954  15.03999901  47.50999832
C    20.12000084  15.31000042  47.15000153
C    15.97000027  16.06999969  46.51000214
C    15.31000042  16.10000038  47.77999878
C    13.89999962  16.17000008  47.88999939
C    23.84000015  14.63000107  47.00000000
H    24.00069237  15.12738037  47.95650101
H    19.43000031  15.06000042  49.19000244
H    18.20000076  16.02000046  44.43999863
H    20.59000015  15.64000034  43.87000275
H    22.84000015  14.91000080  44.43000031
H    21.75000000  15.05000019  48.55999756
H    13.35000038  16.11999893  48.81999969
H    24.54999924  14.94999981  46.23000336
H    23.95000076  13.53999996  47.12999725
S    15.84000015  13.35999966  52.04999924
C    18.34000015  12.74000072  51.24000168
C    16.97999954  12.69000053  50.97999954
C    16.47999954  12.31999969  49.73999786
C    17.29999924  11.77999973  48.76999664
C    18.73999977  11.77000046  49.00000000
C    19.67000008  11.26000023  48.02000046
C    21.02999878  11.32999992  48.27000046
C    21.56999969  11.72999954  49.59999847
C    20.69000053  12.34000015  50.47999954
C    19.27999878  12.30000019  50.24000168
C    15.01000023  12.53000069  49.68000031
C    14.52999973  13.19000053  50.87999725
C    13.14000034  13.48999977  50.97999954
C    23.09000015  11.51999950  49.88999939
H    23.32182884  11.71670151  50.93674088
H    18.71999931  13.09000015  52.18999863
H    16.97000122  11.33999920  47.84000015
H    19.30999947  10.77999973  47.11000061
H    21.63000107  10.90999985  47.47000122
H    21.02999878  12.67000008  51.45999908
H    12.79000092  14.00000000  51.86999893
H    23.31999969  10.44999981  49.79999924
H    23.80000114  12.01000023  49.20999908
S    11.57999992  12.20999908  47.60000229
C     9.01000023  12.81000042  48.34999847
C    10.31999969  12.86000061  48.64999771
C    10.82999992  13.28999996  49.94999695
C     9.94999981  13.78000069  50.86000061
C     8.56000042  13.71000099  50.59999847
C     7.64999962  14.26000023  51.56000137
C     6.25999975  14.37999916  51.24000168
C     5.79999971  14.02999973  49.93999863
C     6.63999987  13.45000076  49.00000000
C     8.10000038  13.22000027  49.31999969
C    12.27000046  13.07999992  50.00000000
C    12.82999992  12.50000000  48.80000305
C    14.18000031  12.23999977  48.62999725
C     4.41000032  14.37999916  49.43999863
H     4.20092773  13.96906471  48.45231247
H     8.65999985  12.43000031  47.38999939
H    10.29999924  14.15999985  51.83000183
H     8.10000038  14.65999985  52.47000122
H     5.68000031  14.93999958  51.97000122
H     6.39999962  13.27999973  47.95999908
H    14.60999966  11.72999954  47.77999878
H     4.39000034  15.47000027  49.47000122
H     3.58000016  14.11000061  50.11000061
