96

S    12.27000046  17.38000107  44.01000214
C     9.59999943  17.57999992  44.75000000
C    10.93000031  17.27000046  45.06000137
C    11.26999950  16.79999924  46.40999603
C    10.26000023  16.64999962  47.35000229
C     8.90999985  17.00000000  47.11000061
C     7.82000017  16.97999954  48.04999924
C     6.60000038  17.51000023  47.81000137
C     6.39999962  18.17000008  46.56000137
C     7.37999964  18.22000122  45.56999969
C     8.60999966  17.59000015  45.79999924
C    12.69999981  16.50000000  46.52000046
C    13.34000015  16.81999969  45.30000305
C    14.75999928  16.80999947  45.25000000
C     4.94000006  18.55999947  46.10000229
H     4.70926428  17.95710945  45.22171783
H     9.36999989  17.97999954  43.75999832
H    10.39999962  16.13000107  48.29999924
H     8.15999985  16.69999886  49.03999710
H     5.78999996  17.63000107  48.53000259
H     7.23000002  18.78000069  44.65000153
H    15.22999954  17.22999954  44.36999893
H     4.26000023  18.32999992  46.93000031
H     4.86999989  19.63999939  45.87999725
S    15.95999908  15.62000084  48.79000092
C    18.60000038  15.62000084  48.22999954
C    17.29999924  15.88000107  47.81000137
C    16.95999908  16.39000130  46.49000168
C    18.04000092  16.56999969  45.65000153
C    19.34999847  16.10999870  45.98999786
C    20.38999939  16.04999924  45.02999878
C    21.55999947  15.39999962  45.25000000
C    21.88999939  14.88000011  46.55000305
C    20.94000053  15.03999901  47.57999802
C    19.63999939  15.65000057  47.32999802
C    15.50000000  16.39999962  46.27999878
C    14.82999992  15.95999908  47.45999908
C    13.43999958  16.00000000  47.61000061
C    23.26999855  14.52000046  46.98999786
H    23.51735497  15.14899349  47.84514999
H    18.67000008  15.14999962  49.20000076
H    17.77000046  16.82999992  44.62999725
H    20.15999985  16.36999893  44.02000046
H    22.32999992  15.40999985  44.47999954
H    21.19999886  14.68000031  48.56999969
H    12.94000053  15.73999977  48.54000092
H    23.90000153  14.56999969  46.09000397
H    23.25000000  13.45000076  47.25000000
S    12.13999939  17.10000038  51.04999924
C     9.46000004  17.57999992  51.69000244
C    10.71000004  17.04000092  52.06999969
C    11.00999928  16.61000061  53.41999817
C    10.01000023  16.70999908  54.31999969
C     8.71000004  17.05999947  53.88999939
C     7.60999966  17.07999992  54.79000092
C     6.38000011  17.53999901  54.45999908
C     6.02999973  17.76000023  53.09000015
C     7.04999971  17.87999916  52.22999954
C     8.40999985  17.53999901  52.58999634
C    12.43000031  16.54000092  53.67000198
C    13.17000008  16.82999992  52.45999908
C    14.57999992  16.95000076  52.39999771
C     4.61999989  18.13999939  52.70000076
H     4.26790094  17.67292976  51.78023148
H     9.39000034  17.97000122  50.68000031
H    10.13000011  16.35000038  55.34000015
H     7.85000038  16.88999939  55.84000015
H     5.64000034  17.70000076  55.24000168
H     6.81999969  18.35000038  51.27999878
H    15.10000038  16.80999947  51.45000076
H     3.94000006  17.78000069  53.47999954
H     4.44000006  19.22000122  52.68000031
S    15.51000023  15.70000076  56.05999756
C    18.17000008  15.39999962  55.22999573
C    16.95000076  15.88999939  55.00000000
C    16.65999985  16.46000099  53.73000336
C    17.61000061  16.50000000  52.70999908
C    18.89999962  15.95999908  52.90999985
C    19.93000031  15.84000015  51.86000061
C    21.14000130  15.26000023  52.18999863
C    21.45000076  14.96000099  53.54000092
C    20.48999977  15.03999901  54.50000000
C    19.17000008  15.44999981  54.23999786
C    15.26000023  16.72000122  53.54999924
C    14.52999973  16.39000130  54.73999786
C    13.14000034  16.46000099  54.86999893
C    22.86999893  14.63999939  53.92000198
H    23.14005852  15.11779594  54.86174393
H    18.39999962  14.85000038  56.13999939
H    17.43999863  16.82999992  51.68000031
H    19.78000069  16.31000137  50.89000320
H    21.87000084  15.19999981  51.38999939
H    20.76999855  14.73000050  55.50000000
H    12.64999962  16.34000015  55.83000183
H    23.51000023  14.94999981  53.09000015
H    22.89999962  13.53999996  53.93000031
