96

S    12.35000038  17.01000023  44.20000076
C     9.76000023  17.51000023  44.93000031
C    11.00000000  17.09000015  45.30000305
C    11.30000019  16.59000015  46.59999847
C    10.24000072  16.47999954  47.49000168
C     8.94999981  17.00000000  47.12999725
C     7.88999987  16.87999916  48.06999969
C     6.60000038  17.38000107  47.72999573
C     6.39999962  17.90999985  46.44000244
C     7.42999983  17.94999886  45.47000122
C     8.69000053  17.46000099  45.84000015
C    12.71999931  16.17000008  46.72000122
C    13.43999958  16.40999985  45.51000214
C    14.82999992  16.34000015  45.50000000
C     5.07999992  18.39999962  46.04999924
H     4.66299486  17.70978355  45.31664658
H     9.72999954  18.04999924  43.99000168
H    10.40999985  16.18000031  48.52000427
H     8.09000015  16.47999954  49.06000137
H     5.82999992  17.45000076  48.48999786
H     7.25000000  18.40999985  44.51000214
H    15.46000004  16.46999931  44.61999893
H     4.42000008  18.20000076  46.90000153
H     5.13000011  19.42000008  45.65000153
S    15.90000057  15.08999920  49.13000107
C    18.63999939  15.10000038  48.43000031
C    17.31999969  15.34999943  48.11999893
C    16.98999977  15.73999977  46.81999969
C    17.94000053  15.98000050  45.84999847
C    19.27999878  15.71000004  46.16000366
C    20.30999947  15.77999973  45.24000168
C    21.59000015  15.39000034  45.47000122
C    21.98999786  14.92000008  46.76000214
C    21.09000015  14.81999969  47.77999878
C    19.67000008  15.19999981  47.48000336
C    15.54999924  15.93000031  46.60999680
C    14.80999947  15.57000065  47.75000000
C    13.45000076  15.77999973  47.85999680
C    23.45999908  14.61999989  47.08000183
H    23.84972954  15.10893440  47.97283554
H    18.86000061  14.56999969  49.34999847
H    17.63000107  16.32999992  44.86000061
H    19.90999985  16.10000038  44.27999878
H    22.29000092  15.26999950  44.65000153
H    21.42999840  14.61999989  48.79000092
H    13.02000046  15.86999989  48.86000061
H    24.03000069  14.94999981  46.20999908
H    23.52999878  13.53000069  47.21000290
S    11.97999954  16.95999908  50.79999924
C     9.22999954  17.51000023  51.49000168
C    10.53999996  17.02999878  51.83000183
C    10.88999939  16.50000000  53.15999985
C     9.89000034  16.54999924  54.10999680
C     8.64999962  17.12000084  53.81000137
C     7.64999962  17.20999908  54.78000259
C     6.44999981  17.82999992  54.56999969
C     6.07999992  18.18000031  53.16999817
C     6.98999977  17.97000122  52.19999695
C     8.26000023  17.61000061  52.50999832
C    12.34000015  16.35000038  53.37999725
C    13.04999924  16.50000000  52.15000153
C    14.37999916  16.38000107  52.02000046
C     4.67000008  18.63000107  52.84999847
H     4.21422911  18.02698135  52.06467056
H     8.85000038  17.79999924  50.52000046
H    10.19000053  16.27000046  55.12000275
H     7.95000029  16.97999954  55.79000092
H     5.69999981  17.79999924  55.34999847
H     6.81999969  18.23999977  51.17000198
H    14.85000038  16.26000023  51.04000092
H     4.02999973  18.63999939  53.74000168
H     4.61999989  19.68000031  52.52999878
S    15.39999962  16.15999985  55.83000183
C    18.15000153  15.62000084  55.25000000
C    16.87000084  15.93999958  54.79999924
C    16.43000031  16.05999947  53.43999863
C    17.43000031  15.93000031  52.49000168
C    18.86000061  15.64000034  52.84999847
C    19.89999962  15.54999924  51.90000153
C    21.12999916  15.26000023  52.28000259
C    21.40999985  15.03999901  53.63999939
C    20.43999863  15.26999950  54.58000183
C    19.18000031  15.54999924  54.22000122
C    15.03999901  16.34000015  53.18999863
C    14.39000034  16.35000038  54.41999817
C    13.02999973  16.34000015  54.58000183
C    22.84000015  14.67000008  54.00000000
H    23.07441139  15.06779194  54.98737717
H    18.30999947  15.36000061  56.29000092
H    17.13000107  15.98999977  51.44000244
H    19.71999931  15.82999992  50.86000061
H    21.96000099  15.11000061  51.59999847
H    20.66999817  15.13000011  55.63000107
H    12.55000019  16.29999924  55.54999924
H    23.54000092  15.13000011  53.29999924
H    23.02999878  13.60000038  53.87000275
