96

S    12.61999989  17.17000008  44.27000046
C     9.92999935  17.69000053  44.82999802
C    11.13000011  17.19000053  45.21999741
C    11.42000008  16.72000122  46.56000137
C    10.34999943  16.57999992  47.43999863
C     9.11000061  17.13000107  47.14000320
C     8.01000023  17.28000069  48.04999924
C     6.76000023  17.79999924  47.67000198
C     6.56000042  18.19000053  46.32999802
C     7.57999992  18.05999947  45.41999817
C     8.88000011  17.57999992  45.75000000
C    12.86000061  16.55999947  46.79999924
C    13.66000080  16.75000000  45.65000153
C    15.01999950  16.80999947  45.65999985
C     5.13999987  18.65999985  45.84999847
H     4.76008129  17.99334908  45.07582855
H     9.73999977  18.07999992  43.83999634
H    10.48999977  16.10000038  48.40999985
H     8.03999996  17.00000000  49.09999847
H     5.88999987  17.76000023  48.31999969
H     7.44000006  18.46999931  44.41999817
H    15.52000046  16.95999908  44.71000290
H     4.57999992  18.71000099  46.79999924
H     5.10999966  19.70000076  45.50000000
S    15.93000031  15.55999947  49.18000031
C    18.65999985  15.06000042  48.61000061
C    17.42000008  15.65000057  48.27000046
C    17.10000038  16.31999969  47.04000092
C    18.07999992  16.38000107  46.12999725
C    19.40000153  15.82999992  46.32999802
C    20.38999939  15.95999908  45.31000137
C    21.63000107  15.40999985  45.47000122
C    21.98999786  14.81999969  46.76000214
C    21.00000000  14.77000046  47.77999878
C    19.70000076  15.15999985  47.58999634
C    15.70000076  16.52000046  46.83000183
C    14.93999958  16.18000031  47.97999954
C    13.50000000  16.13000107  47.95999908
C    23.32999992  14.19999981  47.09000015
H    23.64008331  14.68924236  48.01335907
H    18.79999924  14.55999947  49.55999756
H    17.89999962  16.76000023  45.12000275
H    20.13000107  16.40999985  44.34999847
H    22.22999954  15.39000034  44.56999969
H    21.19999886  14.37999916  48.76999664
H    12.94000053  15.59999943  48.73000336
H    24.04000092  14.57999992  46.33999634
H    23.32999992  13.10999966  47.15999985
S    11.80999947  17.54999924  50.66999817
C     9.13999939  17.86999893  51.43000031
C    10.44999981  17.39999962  51.69000244
C    10.77000046  16.95000076  53.02000046
C     9.82999992  16.90000153  54.06000137
C     8.51000023  17.20000076  53.75999832
C     7.42000008  17.11000061  54.65999985
C     6.10000038  17.46999931  54.43999863
C     5.78000021  18.00000000  53.15000153
C     6.80999994  18.07999992  52.22000122
C     8.19000053  17.71000099  52.48000336
C    12.23000050  16.81999969  53.23999786
C    12.86999893  17.02999878  51.98999786
C    14.22999954  16.76000023  51.95999908
C     4.41000032  18.52000046  52.77999878
H     3.98767853  17.92292595  51.97176361
H     9.04999924  18.48999977  50.52999878
H    10.19000053  16.46000099  54.99000168
H     7.77999973  16.86000061  55.65000153
H     5.46999979  17.67000008  55.30000305
H     6.61000013  18.53999901  51.25000000
H    14.77000046  17.12000084  51.09000397
H     3.68000007  18.45000076  53.60000229
H     4.61999989  19.59000015  52.64999771
S    15.43000031  15.93000031  55.61999893
C    17.98999977  15.13000011  54.86000061
C    16.77000046  15.62000084  54.52000046
C    16.39999962  16.17000008  53.22999954
C    17.38999939  16.26000023  52.30999756
C    18.65999985  15.80999947  52.57999802
C    19.78000069  16.00000000  51.70999908
C    21.02999878  15.52999973  51.97999954
C    21.28000069  15.00000000  53.29000092
C    20.28000069  14.80999947  54.18000031
C    18.96000099  15.21000004  53.88999939
C    14.98999977  16.46000099  53.09000015
C    14.34999943  16.48999977  54.36999893
C    12.97000027  16.44000053  54.40000153
C    22.72999954  14.68999958  53.67000198
H    22.93884087  15.13648510  54.64218140
H    18.22000122  14.78999996  55.86999893
H    17.05000114  16.50000000  51.31000137
H    19.62000084  16.53000069  50.77000046
H    21.77999878  15.47000027  51.19999695
H    20.48000145  14.40000057  55.17000198
H    12.51000023  16.13000107  55.33000183
H    23.51000023  15.01000023  52.97000122
H    22.93999863  13.63000011  53.88000107
