96

S    12.13999939  17.07999992  44.34000015
C     9.59000015  17.54999924  44.99000168
C    10.78999996  17.02999878  45.35999680
C    11.06999969  16.53000069  46.65000153
C    10.08999920  16.56999969  47.57999802
C     8.78999996  17.05000114  47.31999969
C     7.68000031  16.80999947  48.22000122
C     6.44000006  17.23999977  47.75000000
C     6.23000050  17.71999931  46.47999573
C     7.22000027  17.87999916  45.61999893
C     8.52999973  17.48999977  45.96000290
C    12.51999950  16.20000076  46.79000092
C    13.20000076  16.54000092  45.63999939
C    14.53999996  16.54999924  45.63000107
C     4.78999996  17.93000031  46.11000061
H     4.39080667  17.37398148  45.26171494
H     9.52999973  17.87999916  43.95999908
H    10.14999962  16.02000046  48.52000427
H     7.79999971  16.27000046  49.15000153
H     5.59999990  17.02999878  48.40999985
H     7.03999996  18.15999985  44.59000015
H    15.06999969  16.80999947  44.72000122
H     4.11999989  17.68000031  46.95000076
H     4.65999985  19.02000046  46.04000092
S    15.70000076  15.36000061  49.23999786
C    18.32999992  14.89999962  48.48999786
C    17.12000084  15.44000053  48.15999985
C    16.77000046  16.02000046  46.90000153
C    17.73999977  15.95999908  45.97999954
C    19.02000046  15.57000065  46.23000336
C    20.03999901  15.69000053  45.20999908
C    21.28000069  15.18000031  45.41999817
C    21.57999992  14.48999977  46.69000244
C    20.55999947  14.40000057  47.67000198
C    19.29999924  15.01000023  47.49000168
C    15.32999992  16.22999954  46.77999878
C    14.61999989  15.80000019  47.95000076
C    13.23999977  15.70000076  47.90000153
C    23.01000214  14.21000004  47.15999985
H    23.38645935  14.83506203  47.96973801
H    18.57999992  14.40000057  49.41999817
H    17.47999954  16.28999901  44.98000336
H    19.78999901  16.15999985  44.26000214
H    21.94999886  15.29999924  44.56999969
H    20.72000122  14.06000042  48.68999863
H    12.64000034  15.44999981  48.76999664
H    23.74000168  14.18000031  46.35000229
H    23.02000046  13.20000076  47.56999969
S    15.95999908  12.81999969  52.32999802
C    18.68000031  12.23999977  51.68000031
C    17.25000000  12.25999928  51.32999802
C    16.82999992  11.87999916  50.00999832
C    17.71000099  11.46999931  49.06999969
C    19.11999893  11.54999924  49.27999878
C    20.03000069  11.18999958  48.22999954
C    21.31000137  10.93999958  48.59000397
C    21.78999901  11.13000011  49.93999863
C    20.94000053  11.61000061  50.93999863
C    19.55000114  11.82999992  50.61999893
C    15.40999985  12.11999989  49.73999786
C    14.85000038  12.63000011  50.96000290
C    13.50999928  13.03999996  51.04000092
C    23.31999969  10.95000076  50.24000168
H    23.60829926  11.17176819  51.26752472
H    18.95000076  12.53999901  52.69000244
H    17.17000008  11.19999981  48.16999817
H    19.62000084  11.06999969  47.22999954
H    22.17000008  10.62000084  48.02000046
H    21.25999832  11.69999981  51.97999954
H    13.01000023  13.38999939  51.93999863
H    23.52999878   9.92000008  49.93000031
H    23.82999802  11.69000053  49.61000061
S    12.10000038  12.18999958  47.35000229
C     9.46000004  13.02999973  48.01000214
C    10.81999969  12.84999943  48.34999847
C    11.31000042  13.17000008  49.66999817
C    10.43000031  13.68000031  50.59000015
C     9.03999996  13.68000031  50.31999969
C     8.09000015  14.13000011  51.27999878
C     6.76999998  14.30999947  50.97999954
C     6.34999990  14.09000015  49.65999985
C     7.20000029  13.55000019  48.69999695
C     8.53999996  13.43000031  48.97999573
C    12.72999954  12.94000053  49.84000397
C    13.35999966  12.36999989  48.66000366
C    14.68000031  11.97000027  48.59000397
C     4.92000008  14.42000008  49.40999985
H     4.70261431  14.16755295  48.37215805
H     9.21000004  12.86999893  46.95999908
H    10.67999935  14.21000004  51.50000000
H     8.56000042  14.51000023  52.18999863
H     6.07999992  14.65000057  51.75000000
H     6.97000027  13.43999958  47.63999939
H    15.11000061  11.47999954  47.72999573
H     4.57999992  15.39000034  49.79000092
H     4.32999992  13.80000019  50.08999634
