96

S    12.63000011  16.79999924  44.31999969
C     9.94999981  17.26000023  44.85000229
C    11.18000031  16.79000092  45.27000046
C    11.40999985  16.38000107  46.59000015
C    10.43000031  16.32999992  47.56999969
C     9.07999992  16.63999939  47.15000153
C     7.90000010  16.53000069  48.00000000
C     6.65999985  16.94000053  47.63000107
C     6.48000002  17.47999954  46.33999634
C     7.50000000  17.52000046  45.47999954
C     8.85000038  17.07999992  45.80999756
C    12.81000042  16.05999947  46.81000137
C    13.63000011  16.23999977  45.65000153
C    14.98999977  16.15999985  45.59000015
C     5.03000021  17.97999954  45.90999985
H     4.75192595  17.43775558  45.00625992
H     9.81000042  17.89999962  43.97999573
H    10.67999935  16.10999870  48.61000061
H     8.05999947  16.18999863  49.02000046
H     5.86000013  17.02000046  48.36000061
H     7.35000038  17.94999886  44.48999786
H    15.48999977  16.11999893  44.62999725
H     4.28999996  17.72999954  46.68000031
H     5.05000019  19.03000069  45.59999847
S    15.90999985  15.62999916  49.45999908
C    18.71000099  15.01000023  48.70999908
C    17.40999985  15.47999954  48.40000153
C    17.02999878  15.85999966  47.04999924
C    18.04000092  16.02000046  46.11999893
C    19.40000153  15.62000084  46.35000229
C    20.48000145  15.80000019  45.44000244
C    21.71999931  15.39999962  45.77000046
C    22.03000069  14.85999966  47.02999878
C    20.98999977  14.61999989  47.97999954
C    19.68000031  15.01000023  47.65999603
C    15.59000015  16.00000000  46.81000137
C    14.84000015  15.78999996  48.02000046
C    13.45000076  15.88000107  48.01000214
C    23.46999931  14.56999969  47.32999802
H    23.78787613  15.02208996  48.26950073
H    18.84000015  14.68999958  49.73999786
H    17.75000000  16.40999985  45.14999771
H    20.26000023  16.15999985  44.43999863
H    22.52000046  15.44999981  45.04000092
H    21.40000153  14.51000023  48.97999573
H    12.98999977  15.82999992  49.00000000
H    24.03000069  14.85000038  46.43000031
H    23.62999916  13.48999977  47.36999893
S    16.21999931  13.17999935  52.27000427
C    18.95000076  12.53999901  51.58000183
C    17.61000061  12.64000034  51.26999664
C    17.14999962  12.17000008  49.99000168
C    18.04000092  11.65999985  49.08000183
C    19.44000053  11.72999954  49.34999847
C    20.31999969  11.13999939  48.44999695
C    21.70999908  10.98999977  48.67000198
C    22.19000053  11.51999950  49.95999908
C    21.30000114  12.05999947  50.89000320
C    19.89999962  12.13000107  50.61999893
C    15.76000023  12.36999989  49.80999756
C    15.10000038  12.79999924  51.00999832
C    13.81000042  13.25000000  50.96000290
C    23.59999847  11.30000019  50.43000031
H    23.90173340  11.77415276  51.36393738
H    19.40999985  12.88000011  52.50000000
H    17.76000023  11.30000019  48.09000015
H    19.72999954  10.67000008  47.65999603
H    22.29000092  10.32999992  48.02999878
H    21.45000076  12.41000080  51.90999985
H    13.38999939  13.53000069  51.91999817
H    23.77000046  10.21999931  50.34999847
H    24.31999969  11.65999985  49.68000031
S    12.38000011  12.05999947  47.49000168
C     9.72000027  12.71000004  48.16999817
C    11.03000069  12.61999989  48.47999954
C    11.56000042  13.14000034  49.73999786
C    10.64000034  13.67000008  50.65000153
C     9.25000000  13.63000011  50.37000275
C     8.27999973  14.11999893  51.33999634
C     6.93000031  14.14000034  50.98999786
C     6.48000002  13.63000011  49.68999863
C     7.42999983  13.26000023  48.76999664
C     8.80000019  13.14000034  49.05000305
C    13.02999973  13.00000000  49.80999756
C    13.63999939  12.46999931  48.67000198
C    14.96999931  12.13999939  48.63999939
C     5.00999975  13.52000046  49.45000076
H     4.75959206  13.74178982  48.41259766
H     9.47000027  12.41000080  47.15999985
H    10.85999966  14.02999973  51.65000153
H     8.69000053  14.47999954  52.27000427
H     6.17999983  14.48999977  51.69000244
H     7.14999962  12.79000092  47.83000183
H    15.43000031  11.72000027  47.75000000
H     4.38000011  14.13000011  50.11000061
H     4.75000000  12.46000099  49.58000183
