96

S    12.44999981  16.88999939  44.13000107
C     9.85999966  17.64000130  44.87999725
C    11.10000038  17.14999962  45.30000305
C    11.40999985  16.80999947  46.60999680
C    10.36000061  16.93000031  47.51999664
C     9.11000061  17.42000008  47.18999863
C     7.99000025  17.25000000  48.08000183
C     6.65999985  17.43000031  47.60000229
C     6.44000006  17.86999893  46.29000092
C     7.44999981  17.98999977  45.41999817
C     8.80000019  17.78000069  45.79999924
C    12.84000015  16.59000015  46.77000046
C    13.50999928  16.55999947  45.47999954
C    14.85000038  16.34000015  45.35999680
C     5.05999994  18.17000008  45.86999893
H     4.65418386  17.63824081  45.00939178
H     9.75000000  17.93000031  43.83999634
H    10.48999977  16.50000000  48.50999832
H     8.23000050  16.81999969  49.05000305
H     5.88999987  17.29999924  48.36000061
H     7.30999994  18.27000046  44.38000107
H    15.47000027  16.53000069  44.48999786
H     4.35999966  17.94000053  46.69000244
H     4.88000011  19.23999977  45.73999786
S    15.90000057  15.80000019  49.13999939
C    18.55999947  15.26999950  48.48999786
C    17.28999901  15.65000057  48.09000015
C    16.98999977  15.85000038  46.70000076
C    18.04999924  15.90999985  45.77999878
C    19.34000015  15.54999924  46.13999939
C    20.36999893  15.43000031  45.21999741
C    21.61999893  14.92000008  45.48999786
C    21.87999916  14.68000031  46.88000107
C    20.95000076  14.80999947  47.87000275
C    19.63999939  15.26999950  47.50999832
C    15.55999947  16.02000046  46.52000046
C    14.88999939  16.01000023  47.80000305
C    13.53000069  16.21000099  47.90000153
C    23.22000122  14.22999954  47.29000092
H    23.58332634  14.74293041  48.18050385
H    18.90999985  14.89999962  49.45000076
H    17.80999947  16.25000000  44.78000259
H    20.12000084  15.77999973  44.22000122
H    22.37999916  14.73000050  44.72999954
H    21.15999985  14.44000053  48.87000275
H    13.03999996  16.00000000  48.83999634
H    23.87000084  14.39000034  46.42000198
H    23.19000053  13.15999985  47.50999832
S    16.21999931  13.05999947  52.08000183
C    18.89000130  12.56999969  51.11999893
C    17.50000000  12.63000011  50.91999817
C    17.02999878  12.15999985  49.66999817
C    17.88999939  11.80999947  48.62999725
C    19.25000000  11.61000061  48.87000275
C    20.13000107  11.00000000  48.02000046
C    21.45999908  10.82999992  48.39000320
C    21.90999985  11.26000023  49.68000031
C    21.07000160  11.98999977  50.50000000
C    19.78000069  12.07999992  50.11000061
C    15.53999996  12.43999958  49.62999725
C    15.01999950  12.92000008  50.79000092
C    13.67000008  13.31999969  50.96000290
C    23.29000092  10.90000057  50.19000244
H    23.44939232  11.25343227  51.20871735
H    19.18000031  12.98999977  52.08000183
H    17.50000000  11.33999920  47.72999573
H    19.86999893  10.65999985  47.02000046
H    22.06000137  10.18000031  47.76000214
H    21.31999969  12.43000031  51.46999741
H    13.35000038  13.78999901  51.88999939
H    23.42000008   9.81999969  50.06000137
H    23.97999954  11.36000061  49.47000122
S    12.20000076  12.51999950  47.38999939
C     9.57999992  13.07999992  48.16999817
C    10.92000008  12.98999977  48.54000092
C    11.46000004  13.42000008  49.79999924
C    10.54999924  13.88000011  50.76000214
C     9.19000053  14.04000092  50.47000122
C     8.23999977  14.34000015  51.43000031
C     6.91999960  14.47999954  51.13999939
C     6.52999973  14.34999943  49.79999924
C     7.37999964  13.94999981  48.81999969
C     8.73000050  13.68999958  49.18000031
C    12.84999943  13.21000004  49.82999802
C    13.40000057  12.68000031  48.62999725
C    14.72000027  12.25999928  48.55999756
C     5.09999990  14.47999954  49.34999847
H     4.95764971  14.20953369  48.30372620
H     9.13999939  12.79999924  47.21000290
H    10.82999992  14.02999973  51.79999924
H     8.65999985  14.63000107  52.38999939
H     6.19000006  14.92000008  51.81000137
H     7.02000046  13.85000038  47.80000305
H    15.11000061  11.90999985  47.61000061
H     4.65999985  15.46000004  49.58000183
H     4.48999977  13.73000050  49.86000061
