96

S    12.65999985  17.35000038  44.51000214
C     9.94000053  17.38999939  44.98000336
C    11.18000031  17.06999969  45.41999817
C    11.40999985  16.56999969  46.76000214
C    10.34000015  16.32999992  47.61000061
C     9.06000042  16.70999908  47.25000000
C     8.01000023  16.86000061  48.20000076
C     6.77999973  17.52000046  47.90999985
C     6.52999973  17.94000053  46.58000183
C     7.53999996  17.86000061  45.68000031
C     8.82999992  17.28000069  45.93999863
C    12.84999943  16.40999985  47.02000046
C    13.61999989  16.84999847  45.86000061
C    15.01000023  16.80999947  45.81999969
C     5.10999966  18.29000092  46.09000397
H     4.80937004  17.73273468  45.20277405
H     9.84000015  17.98999977  44.06999969
H    10.67000008  16.09000015  48.61999893
H     8.19999981  16.59000015  49.23999786
H     6.01000023  17.79000092  48.62999725
H     7.40999985  18.27999878  44.68000031
H    15.55999947  17.09000015  44.93000031
H     4.44999981  18.09000015  46.95000076
H     4.92000008  19.36000061  45.93999863
S    15.93999958  15.52000046  49.47000122
C    18.61999893  15.19000053  48.73000336
C    17.35000038  15.59000015  48.40000153
C    17.07999992  16.10000038  47.11000061
C    18.06999969  16.17000008  46.18000031
C    19.34000015  15.65999985  46.35000229
C    20.43000031  15.55999947  45.45000076
C    21.57999992  14.93000031  45.83000183
C    21.78999901  14.48999977  47.15000153
C    20.84000015  14.68000031  48.04000092
C    19.60000038  15.21999931  47.70000076
C    15.67000008  16.38000107  46.97000122
C    14.91000080  16.03999901  48.15999985
C    13.53000069  16.04999924  48.15000153
C    23.15999985  14.01999950  47.48000336
H    23.55031586  14.54042149  48.35459900
H    18.94000053  14.82999992  49.69999695
H    17.86000061  16.61000061  45.20999908
H    20.22999954  15.98000050  44.47000122
H    22.39999962  14.93999958  45.12000275
H    20.88999939  14.22000027  49.02999878
H    12.88000011  15.64000034  48.92000198
H    23.85999870  14.17000008  46.63999939
H    23.15000153  12.94999981  47.70000076
S    16.04999924  12.56999969  52.29999924
C    18.64999962  12.10000038  51.50000000
C    17.30999947  12.17000008  51.12999725
C    16.81999969  11.90000057  49.79999924
C    17.68000031  11.46999931  48.80000305
C    19.09000015  11.50000000  49.09999847
C    20.09000015  11.18999958  48.18999863
C    21.45999908  11.21000099  48.57999802
C    21.84000015  11.25000000  49.93999863
C    20.86999893  11.59000015  50.80999756
C    19.54000092  11.77000046  50.41999817
C    15.43000031  12.23999977  49.72999954
C    14.89999962  12.69999981  50.97999954
C    13.53000069  13.15999985  51.12999725
C    23.26999855  10.72000027  50.33000183
H    23.56626511  11.06684780  51.31996155
H    18.89000130  12.13999939  52.56000137
H    17.20000076  11.31000042  47.84000015
H    19.82999992  11.00000000  47.15000153
H    22.18000031  10.88000107  47.83000183
H    21.02999878  11.64000034  51.88000107
H    13.23999977  13.59000015  52.08000183
H    23.29999924   9.63000011  50.31000137
H    24.02000046  11.00999928  49.58000183
S    12.05999947  12.35999966  47.50000000
C     9.52000046  13.02999973  48.13999939
C    10.82999992  13.00000000  48.54000092
C    11.25000000  13.42000008  49.84000397
C    10.31000042  14.01000023  50.72999954
C     8.93000031  14.01000023  50.37000275
C     7.88999987  14.37999916  51.25999832
C     6.53999996  14.32000065  50.86999893
C     6.12999964  13.83999920  49.61000061
C     7.16000032  13.36999989  48.80000305
C     8.56999969  13.40000057  49.13000107
C    12.63000011  13.01000023  50.02999878
C    13.22999954  12.51999950  48.81999969
C    14.55000019  12.15000057  48.64999771
C     4.72000027  14.13000011  49.15999985
H     4.43889713  13.73645496  48.18316650
H     9.19000053  12.84999943  47.11999893
H    10.54999924  14.37000084  51.72000122
H     8.30000019  14.80000019  52.16999817
H     5.79999971  14.73999977  51.55000305
H     7.04999971  13.21000004  47.72999573
H    14.96000099  11.75000000  47.72999573
H     4.61999989  15.21999931  49.19000244
H     4.03999996  13.73999977  49.93000031
