96

S    12.05000019  17.19000053  44.02000046
C     9.32999992  17.50000000  44.68000031
C    10.59999943  17.20999908  45.06999969
C    10.90000057  16.73999977  46.38000107
C     9.88000011  16.61999893  47.30999756
C     8.56999969  17.01000023  46.95000076
C     7.48000050  17.00000000  47.90999985
C     6.25000000  17.48999977  47.57999802
C     6.02999973  18.07999992  46.32999802
C     7.00999975  18.07999992  45.33000183
C     8.30000019  17.51000023  45.59000015
C    12.36999989  16.50000000  46.56999969
C    13.05999947  16.72000122  45.41999817
C    14.42999935  16.46999931  45.31999969
C     4.59999990  18.52000046  45.93999863
H     4.18559647  17.88083649  45.16035843
H     9.09000015  17.76000023  43.66000366
H    10.14999962  16.10000038  48.22999954
H     7.63999987  16.51000023  48.87000275
H     5.49000025  17.23999977  48.30999756
H     6.86999989  18.68000031  44.43000031
H    14.96999931  16.40999985  44.36999893
H     4.00000000  18.46999931  46.86000061
H     4.48999977  19.55000114  45.56000137
S    15.43000031  15.50000000  49.06999969
C    18.15000153  15.19000053  48.43000031
C    16.84999847  15.47000027  48.02000046
C    16.52000046  15.88000107  46.68000031
C    17.57999992  16.15999985  45.80999756
C    18.89000130  15.73999977  46.17000198
C    19.96000099  15.86999989  45.25000000
C    21.27000046  15.62999916  45.65999985
C    21.55999947  15.19000053  47.02000046
C    20.55000114  15.14000034  47.95000076
C    19.22999954  15.34999943  47.52999878
C    15.11999989  16.18000031  46.52999878
C    14.42999935  15.98000050  47.70999908
C    13.04999924  16.04999924  47.76000214
C    22.93000031  14.72000027  47.43999863
H    23.30278969  15.30786037  48.27877808
H    18.42000008  14.91000080  49.45000076
H    17.46000099  16.67000008  44.85000229
H    19.70000076  16.39999962  44.34000015
H    22.09000015  15.84000015  44.98000336
H    20.79000092  14.88000011  48.97999573
H    12.50000000  15.75000000  48.64999771
H    23.68999863  14.57999992  46.65999985
H    22.73999977  13.73000050  47.88000107
S    11.77000046  17.13000107  51.09000397
C     9.02999973  17.54999924  51.76000214
C    10.34000015  17.11000061  52.14000320
C    10.64000034  16.60000038  53.41999817
C     9.63000011  16.53000069  54.36000061
C     8.27000046  16.93000031  54.06000137
C     7.11000013  16.70999908  54.88999939
C     5.86000013  17.18000031  54.54000092
C     5.63000011  17.69000053  53.25000000
C     6.65000010  17.71999931  52.32999802
C     8.00000000  17.43999863  52.69000244
C    12.11999989  16.46999931  53.61000061
C    12.84999943  16.68000031  52.41000366
C    14.22000027  16.55999947  52.29999924
C     4.26999998  18.05999947  52.77000046
H     3.97457790  17.64500237  51.80635834
H     8.78999996  17.98999977  50.79999924
H     9.77000046  16.04999924  55.31999969
H     7.25000000  16.18999863  55.84000015
H     5.10999966  17.20000076  55.31999969
H     6.44999981  18.11000061  51.33999634
H    14.72000027  16.69999886  51.33999634
H     3.55999994  17.88999939  53.59000397
H     4.23000002  19.15999985  52.81000137
S    15.29000092  15.80000019  56.13999939
C    17.88999939  15.52999973  55.43000031
C    16.69000053  15.98999977  55.06999969
C    16.38000107  16.28999901  53.70999908
C    17.38999939  16.29999924  52.70999908
C    18.68000031  15.85000038  53.06000137
C    19.73999977  15.80999947  52.11000061
C    20.95000076  15.25000000  52.42000198
C    21.25999832  14.91000080  53.81999969
C    20.23999977  15.05000019  54.79999924
C    18.89999962  15.44000053  54.40000153
C    14.88999939  16.39000130  53.52000427
C    14.19000053  16.18999863  54.80999756
C    12.81000042  16.18000031  54.82999802
C    22.67999840  14.53999996  54.20999908
H    22.98176003  15.10141277  55.09422684
H    18.05999947  15.44999981  56.50000000
H    17.13000107  16.59000015  51.69000244
H    19.70999908  16.35000038  51.17000198
H    21.68000031  15.14999962  51.62000275
H    20.51000214  14.80000019  55.81999969
H    12.30000019  16.13999939  55.77999878
H    23.36999893  14.73999977  53.36999893
H    22.70999908  13.45999908  54.38000107
