96

S    12.15000057  16.97999954  44.43999863
C     9.46000004  17.27000046  45.19000244
C    10.72999954  16.88999939  45.51000214
C    11.06999969  16.32999992  46.77999878
C     9.98999977  16.14999962  47.70000076
C     8.69000053  16.61999893  47.39999771
C     7.60999966  16.44000053  48.29000092
C     6.32000017  16.84000015  47.98999786
C     6.09000015  17.43000031  46.70000076
C     7.13000011  17.71000099  45.87999725
C     8.42000008  17.20000076  46.11999893
C    12.50000000  16.18000031  46.91999817
C    13.15999985  16.32999992  45.68999863
C    14.60000038  16.27000046  45.61999893
C     4.67000008  17.77000046  46.36000061
H     4.40054512  17.42963600  45.36017609
H     9.09000015  17.50000000  44.20000076
H    10.29999924  15.90000057  48.70999908
H     7.77999973  15.80999947  49.15999985
H     5.59999990  16.79999924  48.80000305
H     6.94000006  18.36000061  45.02999878
H    15.06000042  16.35000038  44.64000320
H     4.09000015  17.28000069  47.15000153
H     4.59999990  18.86000061  46.49000168
S    15.65999985  15.69000053  49.34999847
C    18.30000114  15.01999950  48.63999939
C    17.09000015  15.44000053  48.29000092
C    16.69000053  15.69000053  46.95999908
C    17.67000008  15.77000046  45.93999863
C    19.03000069  15.48999977  46.27999878
C    20.07999802  15.59000015  45.30000305
C    21.28999901  15.05000019  45.68000031
C    21.55999947  14.53999996  46.95000076
C    20.58000183  14.55999947  47.95000076
C    19.32999992  15.06000042  47.63999939
C    15.31000042  15.95999908  46.79000092
C    14.61999989  15.98999977  48.04000092
C    13.25000000  15.97000027  48.06999969
C    22.95999908  13.94000053  47.22000122
H    23.48860168  14.64239025  47.86445999
H    18.60000038  14.72000027  49.64000320
H    17.46999931  16.17000008  44.94999695
H    19.80999947  15.85999966  44.27999878
H    22.07999992  14.96000099  44.93999863
H    20.76999855  14.11000061  48.92000198
H    12.76000023  15.54999924  48.94000244
H    23.44000053  13.69999981  46.26999664
H    22.79999924  12.98999977  47.74000168
S    11.38000011  16.61000061  51.29000092
C     8.73999977  16.97000122  52.04000092
C    10.01000023  16.60000038  52.36000061
C    10.40999985  16.29999924  53.67000198
C     9.42000008  16.36000061  54.69999695
C     8.05000019  16.56999969  54.31000137
C     6.93000031  16.51000023  55.24000168
C     5.61999989  16.73999977  54.84000397
C     5.23999977  17.10000038  53.47999954
C     6.30999994  17.20999908  52.56999969
C     7.69000006  16.90999985  52.94000244
C    11.87999916  16.07999992  53.77999878
C    12.53999901  16.35000038  52.60000229
C    13.89999962  16.22999954  52.51999664
C     3.91000009  17.56000137  53.09999847
H     3.54407835  16.97593307  52.25556564
H     8.52000046  17.28999901  51.03000259
H     9.57999992  16.23999977  55.77000046
H     7.20000029  16.31999969  56.26999664
H     4.92000008  16.88999939  55.65999985
H     6.15000010  17.75000000  51.63999939
H    14.46000004  16.59000015  51.65999985
H     3.19999981  17.39999962  53.92000198
H     4.02999973  18.61999893  52.85999680
S    15.08999920  15.44999981  56.23000336
C    17.73999977  15.21000004  55.48999786
C    16.44000053  15.44000053  55.10000229
C    16.09000015  15.75000000  53.79000092
C    17.15999985  15.93000031  52.88000107
C    18.48999977  15.51000023  53.11000061
C    19.52999878  15.51000023  52.15000153
C    20.82999992  15.14000034  52.50000000
C    21.11999893  14.78000069  53.85000229
C    20.10000038  14.75000000  54.79999924
C    18.75000000  15.17000008  54.45000076
C    14.63999939  15.85000038  53.68000031
C    13.99000072  15.67999935  54.89999771
C    12.61999989  15.85999966  54.93999863
C    22.43000031  14.07999992  54.15000153
H    22.76498604  14.40800667  55.13402176
H    17.94999886  14.98999977  56.52999878
H    16.95999908  16.23999977  51.86000061
H    19.32999992  15.76000023  51.11000061
H    21.55999947  15.17000008  51.70000076
H    20.22000122  14.40000057  55.83000183
H    12.09000015  15.95000076  55.87999725
H    23.23999786  14.35999966  53.46000290
H    22.30999947  12.98999977  54.09000015
