96

S    11.87000084  16.77999878  44.00000000
C     9.15999985  17.29999924  44.79000092
C    10.44000053  16.82999992  45.07999802
C    10.84000015  16.40999985  46.42000198
C     9.81000042  16.35000038  47.37999725
C     8.48999977  16.87000084  47.11000061
C     7.40999985  16.70999908  48.04999924
C     6.11999989  17.15999985  47.67000198
C     5.86000013  17.73999977  46.42000198
C     6.89000034  17.78000069  45.51000214
C     8.19999981  17.42000008  45.84999847
C    12.25000000  16.27000046  46.65000153
C    12.96000004  16.54999924  45.41999817
C    14.32000065  16.40999985  45.37000275
C     4.55999994  18.30000114  45.93000031
H     4.10761309  17.76005554  45.09819031
H     8.78999996  17.43999863  43.77999878
H    10.06000042  15.92000008  48.34999847
H     7.49000025  16.36999893  49.08000183
H     5.35000038  17.07999992  48.43000031
H     6.81999969  18.06999969  44.47000122
H    14.88000011  16.59000015  44.45999908
H     3.78999996  18.11000061  46.69000244
H     4.63000011  19.38999939  45.83000183
S    15.43000031  15.60999966  49.15000153
C    17.98999977  15.06999969  48.20999908
C    16.77000046  15.57999992  47.95999908
C    16.39000130  15.95999908  46.65000153
C    17.35000038  16.10000038  45.63000107
C    18.68000031  15.78999996  45.90999985
C    19.69000053  15.73999977  44.87999725
C    20.96999931  15.19999981  45.11000061
C    21.32999802  14.91000080  46.45000076
C    20.35000038  14.84000015  47.42000198
C    18.98999977  15.21999931  47.15999985
C    15.01999950  16.04999924  46.52999878
C    14.35999966  15.80999947  47.76000214
C    12.97999954  15.84000015  47.80000305
C    22.69000053  14.46000004  46.81999969
H    22.83966827  14.81635475  47.83917236
H    18.25000000  14.52999973  49.10999680
H    17.09000015  16.22999954  44.58000183
H    19.45000076  16.07999992  43.88000107
H    21.71999931  15.18000031  44.33000183
H    20.56999969  14.47000027  48.41999817
H    12.38999939  15.52999973  48.64999771
H    23.42000008  14.88999939  46.11999893
H    22.79000092  13.38999939  47.01000214
S    12.02000046  17.09000015  50.87999725
C     9.34000015  17.20999908  51.52999878
C    10.57999992  16.77000046  51.88999939
C    10.85999966  16.28000069  53.20999908
C     9.86999989  16.28999901  54.18000031
C     8.56000042  16.70999908  53.81000137
C     7.55000019  16.77999878  54.79000092
C     6.32999992  17.45000076  54.48999786
C     6.09000015  17.85000038  53.13000107
C     7.03000021  17.71000099  52.18000031
C     8.28999996  17.17000008  52.50999832
C    12.28000069  16.28999901  53.47999954
C    13.00000000  16.55999947  52.27000427
C    14.37999916  16.61000061  52.21000290
C     4.71000004  18.20000076  52.75000000
H     4.36076307  17.62725258  51.89087677
H     9.15999985  17.71999931  50.59000015
H    10.11999989  16.13999939  55.22999573
H     7.90000010  16.57999992  55.79000092
H     5.73999977  17.73999977  55.34999847
H     6.84999990  17.95999908  51.13999939
H    14.84000015  16.97000122  51.30000305
H     4.19000006  17.79000092  53.62999725
H     4.41000032  19.25000000  52.74000168
S    15.54999924  15.86999989  55.90000153
C    18.25000000  15.59000015  55.06999969
C    16.95999908  15.93000031  54.81999969
C    16.54000092  16.35000038  53.52000427
C    17.54999924  16.40999985  52.52999878
C    18.88000107  16.07999992  52.83000183
C    19.89999962  16.05999947  51.88000107
C    21.15999985  15.64000034  52.25999832
C    21.50000000  15.42000008  53.59000397
C    20.55999947  15.38000011  54.50000000
C    19.23999977  15.72000027  54.13000107
C    15.10000038  16.46000099  53.29999924
C    14.44000053  16.18000031  54.54000092
C    13.02999973  16.14999962  54.59999847
C    22.95000076  15.21999931  54.03999710
H    23.11404610  15.39830971  55.10272598
H    18.53000069  15.31999969  56.07999802
H    17.26000023  16.59000015  51.50000000
H    19.60000038  16.35000038  50.86999893
H    22.03000069  15.67000008  51.59999847
H    20.76999855  15.18000031  55.54000092
H    12.53999901  15.97000027  55.54999924
H    23.48999977  15.86999989  53.33000183
H    23.36000061  14.21000004  53.88000107
