96

S    12.32999992  17.00000000  43.99000168
C     9.68000031  17.30999947  44.72999954
C    10.90999985  16.88999939  45.00000000
C    11.26000023  16.39000130  46.31000137
C    10.26999950  16.18000031  47.28000259
C     8.98999977  16.54999924  46.90000153
C     8.03999996  16.65999985  47.94000244
C     6.76000023  17.06999969  47.70999908
C     6.39999962  17.61000061  46.40999603
C     7.36999989  17.80999947  45.45999908
C     8.65999985  17.15999985  45.66999817
C    12.69999981  16.29999924  46.52000046
C    13.43000031  16.64999962  45.38999939
C    14.78999996  16.73999977  45.35999680
C     4.94999981  18.01000023  46.07999802
H     4.57237625  17.65416336  45.12141418
H     9.44999981  17.73999977  43.75999832
H    10.51000023  16.00000000  48.31999969
H     8.38000011  16.38000107  48.93000031
H     5.96000004  16.98999977  48.43000031
H     7.11000013  18.23999977  44.50000000
H    15.26999950  17.12000084  44.47000122
H     4.33999968  17.77000046  46.95999908
H     5.09000015  19.10000038  46.12999725
S    15.65999985  15.29000092  49.05000305
C    18.36000061  15.01000023  48.50999832
C    17.09000015  15.34000015  48.02999878
C    16.88999939  15.98000050  46.73999786
C    17.97999954  16.18999863  45.86000061
C    19.26000023  15.77000046  46.23000336
C    20.38000107  15.73999977  45.33000183
C    21.63000107  15.29000092  45.75000000
C    21.80000114  14.75000000  47.05999756
C    20.72999954  14.63000107  47.94000244
C    19.47000122  15.11999989  47.56000137
C    15.46000004  16.26000023  46.56000137
C    14.70999908  15.86999989  47.67000198
C    13.34000015  15.88999939  47.63000107
C    23.21000099  14.39000034  47.42000198
H    23.49018478  14.63331890  48.44488907
H    18.63000107  14.61999989  49.48999786
H    17.79999924  16.51000023  44.84000397
H    20.13999939  16.13999939  44.34999847
H    22.46999931  15.36999893  45.06999969
H    20.72000122  14.17000008  48.93000031
H    12.76000023  15.43000031  48.41999817
H    23.90000153  14.88999939  46.72000122
H    23.25000000  13.32999992  47.14000320
S    15.92000008  12.50000000  52.11999893
C    18.52000046  12.18999958  51.45000076
C    17.23999977  12.17000008  51.06999969
C    16.84000015  11.87000084  49.68000031
C    17.79999924  11.65999985  48.68999863
C    19.17000008  11.59999943  49.16999817
C    20.17000008  11.17000008  48.33000183
C    21.48999977  11.00999928  48.73000336
C    21.86000061  11.39999962  50.02999878
C    20.88999939  11.96000004  50.86999893
C    19.52999878  11.87000084  50.52000046
C    15.44000053  12.13999939  49.51000214
C    14.75999928  12.48000050  50.68000031
C    13.43000031  12.97000027  50.72999954
C    23.15999985  10.88000107  50.54999924
H    23.55208015  11.39810658  51.42517853
H    18.72999954  12.64999962  52.41000366
H    17.56999969  11.26999950  47.70000076
H    19.89999962  10.92000008  47.30999756
H    22.27999878  10.55999947  48.13999939
H    21.09000015  11.94000053  51.93000031
H    12.98999977  13.35000038  51.65000153
H    23.11000061   9.80000019  50.75000000
H    23.88000107  10.95000076  49.72999954
S    12.10999966  12.25000000  47.15000153
C     9.39999962  12.82999992  47.90000153
C    10.76000023  12.84999943  48.15000153
C    11.31000042  13.30000019  49.43000031
C    10.51000023  13.76999950  50.45000076
C     9.10000038  13.71000099  50.20000076
C     8.11999989  14.09999943  51.20999908
C     6.78999996  14.21000004  51.00999832
C     6.26999950  14.01999950  49.72000122
C     7.13000011  13.43999958  48.75999832
C     8.52000046  13.35999966  48.88999939
C    12.72999954  12.92000008  49.52999878
C    13.34000015  12.43000031  48.36999893
C    14.68999958  12.10999966  48.29999924
C     4.77999973  14.19000053  49.45000076
H     4.47200632  13.72801113  48.51202011
H     9.02999973  12.46999931  46.93999863
H    10.84000015  13.80000019  51.47999573
H     8.50000000  14.45000076  52.16999817
H     6.15999985  14.67000008  51.77999878
H     6.80999994  13.04999924  47.80000305
H    15.19000053  11.78999996  47.38999939
H     4.67000008  15.27999973  49.50000000
H     4.23000002  13.67000008  50.25000000
