96

S    12.32999992  17.00000000  43.99000168
C     9.68000031  17.30999947  44.72999954
C    10.90999985  16.88999939  45.00000000
C    11.26000023  16.39000130  46.31000137
C    10.26999950  16.18000031  47.28000259
C     8.98999977  16.54999924  46.90000153
C     8.03999996  16.65999985  47.94000244
C     6.76000023  17.06999969  47.70999908
C     6.39999962  17.61000061  46.40999603
C     7.36999989  17.80999947  45.45999908
C     8.65999985  17.15999985  45.66999817
C    12.69999981  16.29999924  46.52000046
C    13.43000031  16.64999962  45.38999939
C    14.78999996  16.73999977  45.35999680
C     4.94999981  18.01000023  46.07999802
H     4.57237625  17.65416336  45.12141418
H     9.44999981  17.73999977  43.75999832
H    10.51000023  16.00000000  48.31999969
H     8.38000011  16.38000107  48.93000031
H     5.96000004  16.98999977  48.43000031
H     7.11000013  18.23999977  44.50000000
H    15.26999950  17.12000084  44.47000122
H     4.33999968  17.77000046  46.95999908
H     5.09000015  19.10000038  46.12999725
S    15.65999985  15.29000092  49.05000305
C    18.36000061  15.01000023  48.50999832
C    17.09000015  15.34000015  48.02999878
C    16.88999939  15.98000050  46.73999786
C    17.97999954  16.18999863  45.86000061
C    19.26000023  15.77000046  46.23000336
C    20.38000107  15.73999977  45.33000183
C    21.63000107  15.29000092  45.75000000
C    21.80000114  14.75000000  47.05999756
C    20.72999954  14.63000107  47.94000244
C    19.47000122  15.11999989  47.56000137
C    15.46000004  16.26000023  46.56000137
C    14.70999908  15.86999989  47.67000198
C    13.34000015  15.88999939  47.63000107
C    23.21000099  14.39000034  47.42000198
H    23.49018478  14.63331890  48.44488907
H    18.63000107  14.61999989  49.48999786
H    17.79999924  16.51000023  44.84000397
H    20.13999939  16.13999939  44.34999847
H    22.46999931  15.36999893  45.06999969
H    20.72000122  14.17000008  48.93000031
H    12.76000023  15.43000031  48.41999817
H    23.90000153  14.88999939  46.72000122
H    23.25000000  13.32999992  47.14000320
S    11.87000084  16.97000122  50.94999695
C     9.31999969  17.59000015  51.84999847
C    10.57999992  17.11000061  52.12999725
C    11.02000046  16.70999908  53.46000290
C    10.08999920  16.77999878  54.47999954
C     8.73000050  17.05999947  54.20000076
C     7.67000008  16.88999939  55.15999603
C     6.38000011  17.22999954  54.86000061
C     6.02999973  17.72999954  53.61999893
C     7.00000000  17.84000015  52.64999771
C     8.38000011  17.57999992  52.88000107
C    12.48999977  16.44000053  53.50999832
C    13.07999992  16.60000038  52.21000290
C    14.48999977  16.48999977  52.15000153
C     4.61000013  18.06999969  53.26000214
H     4.34890318  17.63954353  52.29323578
H     8.97000027  17.94000053  50.87999725
H    10.21000004  16.35000038  55.47000122
H     7.86999989  16.38000107  56.10000229
H     5.59999990  17.05999947  55.61000061
H     6.77999973  18.04999924  51.60999680
H    15.01000023  16.61000061  51.19999695
H     4.05999994  17.67000008  54.12000275
H     4.42999983  19.14999962  53.30999756
S    15.62999916  15.78999996  55.87999725
C    18.30000114  15.21999931  55.13000107
C    17.02999878  15.69000053  54.82999802
C    16.69000053  16.00000000  53.48999786
C    17.65999985  15.93000031  52.45999908
C    18.97999954  15.55999947  52.74000168
C    20.07999802  15.52999973  51.79000092
C    21.31999969  15.21999931  52.18999863
C    21.67000008  15.06000042  53.56999969
C    20.68000031  14.92000008  54.45999908
C    19.30999947  15.18000031  54.10999680
C    15.24000072  16.22999954  53.30999756
C    14.60000038  16.18999863  54.54000092
C    13.22999954  16.32999992  54.62999725
C    23.15000153  15.00000000  53.90999603
H    23.33039665  15.12266922  54.97794342
H    18.45000076  15.05000019  56.18999863
H    17.42000008  16.17000008  51.43000031
H    19.82999992  16.00000000  50.84999847
H    22.06000137  15.38000011  51.42000198
H    20.95000076  14.63999939  55.47000122
H    12.74000072  16.20000076  55.59000015
H    23.67000198  15.80000019  53.36999893
H    23.52999878  14.04000092  53.54000092
