96

S    11.94000053  16.84999847  43.85000229
C     9.30000019  17.38000107  44.54999924
C    10.52000046  16.84000015  44.87999725
C    10.77000046  16.47999954  46.23000336
C     9.75000000  16.29999924  47.06999969
C     8.48999977  16.84000015  46.84999847
C     7.50000000  17.02000046  47.83000183
C     6.28999996  17.64000130  47.48000336
C     5.96000004  18.05999947  46.16000366
C     6.98999977  17.98999977  45.25000000
C     8.30999947  17.43000031  45.48999786
C    12.23999977  16.34000015  46.42000198
C    13.02999973  16.60000038  45.24000168
C    14.42000008  16.64999962  45.26000214
C     4.61999989  18.57999992  45.79999924
H     4.31304836  18.11226463  44.86452866
H     9.13000011  17.71000099  43.52000427
H    10.10000038  16.10000038  48.09000015
H     7.63000011  16.61000061  48.81999969
H     5.46999979  17.52000046  48.18999863
H     6.67000008  18.23999977  44.23999786
H    14.94999981  16.84999847  44.33000183
H     3.86999989  18.42000008  46.58000183
H     4.56999969  19.65999985  45.59999847
S    15.34000015  15.60999966  48.95000076
C    17.94999886  15.19000053  48.34000015
C    16.72999954  15.60999966  47.95999908
C    16.48999977  16.17000008  46.66999817
C    17.53000069  16.35000038  45.75000000
C    18.78000069  15.88999939  46.09000397
C    19.85999870  16.05999947  45.19000244
C    21.14000130  15.64000034  45.45999908
C    21.35000038  15.17000008  46.76000214
C    20.38999939  14.96999931  47.71999741
C    19.04000092  15.34000015  47.41000366
C    15.07999992  16.36999893  46.44000244
C    14.34999943  16.03000069  47.58999634
C    12.94000053  15.85000038  47.52999878
C    22.77000046  14.88000011  47.05999756
H    23.10612297  15.32116222  47.99834442
H    18.15000153  14.73999977  49.29999924
H    17.28999901  16.69999886  44.75000000
H    19.64999962  16.54999924  44.25000000
H    21.94999886  16.03000069  44.85000229
H    20.63999939  14.56999969  48.69999695
H    12.43999958  15.36999893  48.36999893
H    23.40999985  15.36999893  46.31000137
H    22.89999962  13.78999901  47.00000000
S    11.52999973  17.25000000  51.16000366
C     8.90999985  17.56000137  51.93999863
C    10.25000000  17.30999947  52.25999832
C    10.59999943  16.86000061  53.55999756
C     9.61000061  16.84999847  54.48999786
C     8.26000023  17.25000000  54.20999908
C     7.25000000  17.18000031  55.24000168
C     5.93999958  17.46000099  54.98000336
C     5.51000023  17.78000069  53.64999771
C     6.43000031  17.88999939  52.67000198
C     7.85000038  17.60000038  52.91999817
C    12.02999973  16.79999924  53.69999695
C    12.61000061  16.95999908  52.43000031
C    13.96000004  16.94000053  52.29999924
C     4.09000015  18.13999939  53.34000015
H     3.68819022  17.77343559  52.39539337
H     8.63000011  17.86999893  50.93000031
H     9.82999992  16.46000099  55.47999954
H     7.62000036  16.75000000  56.16000366
H     5.26999998  17.54999924  55.84000015
H     6.28000021  18.20999908  51.63999939
H    14.44000053  17.04000092  51.32999802
H     3.54999995  17.76000023  54.20999908
H     4.09000015  19.23999977  53.27000046
S    15.19000053  15.95000076  56.03000259
C    17.79000092  15.80000019  55.14999771
C    16.52000046  16.00000000  54.87999725
C    16.14999962  16.39999962  53.54999924
C    17.13000107  16.34000015  52.58999634
C    18.43000031  15.93999958  52.78999710
C    19.40000153  15.93999958  51.76000214
C    20.71000099  15.62999916  52.04000092
C    21.02000046  15.44000053  53.34999847
C    20.13999939  15.47000027  54.38999939
C    18.78000069  15.75000000  54.13000107
C    14.75000000  16.72000122  53.41999817
C    14.11999893  16.51000023  54.68999863
C    12.76999950  16.64999962  54.82999802
C    22.53999901  15.24000072  53.74000168
H    22.89179420  15.65387440  54.68501282
H    18.17000008  15.67000008  56.16000366
H    16.90000153  16.61999893  51.56000137
H    19.23999977  16.31999969  50.75000000
H    21.47999954  15.85000038  51.31000137
H    20.38999939  15.31999969  55.44000244
H    12.30999947  16.52000046  55.79999924
H    23.25000000  15.59000015  52.97999954
H    22.67999840  14.14999962  53.67000198
