96

S    12.32999992  16.95000076  44.10999680
C     9.52999973  17.40999985  44.87999725
C    10.78999996  16.84999847  45.17000198
C    11.13000011  16.32999992  46.45000076
C    10.14000034  16.20000076  47.36999893
C     8.78000069  16.57999992  47.06999969
C     7.69999981  16.51000023  47.98999786
C     6.42000008  16.87000084  47.74000168
C     6.14000034  17.53000069  46.44000244
C     7.13000011  17.67000008  45.54000092
C     8.47000027  17.27000046  45.83000183
C    12.57999992  16.17000008  46.63999939
C    13.31999969  16.46000099  45.47999954
C    14.68000031  16.39000130  45.41999817
C     4.72000027  17.87999916  46.20999908
H     4.29403019  17.42563248  45.31546021
H     9.35999966  18.05999947  44.02000046
H    10.32999992  15.70000076  48.31999969
H     7.76000023  15.82999992  48.83999634
H     5.69000006  16.68000031  48.52000427
H     6.89000034  18.07999992  44.55999756
H    15.13000011  16.45000076  44.43999863
H     4.11000013  17.48999977  47.02999878
H     4.65999985  18.96999931  46.25000000
S    15.69000053  15.24000072  49.09000015
C    18.36000061  14.80999947  48.27000046
C    17.13999939  15.29000092  48.02999878
C    16.79000092  15.86999989  46.79000092
C    17.76000023  15.95999908  45.80999756
C    19.10000038  15.48999977  46.00000000
C    20.12000084  15.53999996  44.98000336
C    21.38999939  15.21000004  45.34000015
C    21.75000000  14.77000046  46.63999939
C    20.73999786  14.52000046  47.55000305
C    19.37999916  14.93999958  47.31999969
C    15.34999943  16.09000015  46.59999847
C    14.60999966  15.76000023  47.76000214
C    13.26000023  15.78999996  47.85999680
C    23.15000153  14.37000084  47.04000092
H    23.31858063  14.65096855  48.07958603
H    18.39999962  14.18000031  49.15000153
H    17.48999977  16.45000076  44.87999725
H    19.92000008  16.14999962  44.09999847
H    22.17000008  15.36000061  44.59999847
H    20.95999908  14.02999973  48.48999786
H    12.69999981  15.57000065  48.75999832
H    23.95000076  14.72000027  46.37000275
H    23.19999886  13.27000046  46.95999908
S    11.50000000  16.69000053  50.79999924
C     8.80000019  17.21999931  51.42000198
C    10.06000042  16.88999939  51.88000107
C    10.36000061  16.73999977  53.29999924
C     9.36999989  16.90000153  54.20999908
C     8.01999950  17.01000023  53.69999695
C     6.94000006  17.09000015  54.65999985
C     5.69999981  17.38999939  54.23999786
C     5.46999979  17.79000092  52.90999985
C     6.48999977  17.76000023  51.93999863
C     7.78999996  17.38000107  52.34000397
C    11.76000023  16.56999969  53.48999786
C    12.48999977  16.57999992  52.23999786
C    13.86999989  16.46999931  52.18999863
C     4.09000015  18.22999954  52.52999878
H     3.64506674  17.54824829  51.80519104
H     8.67000008  17.48999977  50.37000275
H     9.59000015  17.05999947  55.27000046
H     7.18999958  17.02999878  55.70999908
H     4.90000010  17.43000031  54.98000336
H     6.38000011  18.06999969  50.90999985
H    14.42999935  16.40999985  51.26999664
H     3.50000000  18.23999977  53.46000290
H     4.25000000  19.26000023  52.18999863
S    15.01000023  15.88000107  55.96000290
C    17.59000015  15.46000004  55.34000015
C    16.38000107  15.70000076  54.93999863
C    16.01000023  15.98000050  53.55999756
C    16.95999908  15.98999977  52.54000092
C    18.29000092  15.78999996  52.95999908
C    19.40000153  15.75000000  52.05999756
C    20.65000153  15.27999973  52.43999863
C    20.95000076  14.89999962  53.79000092
C    19.93999863  15.01000023  54.68000031
C    18.57999992  15.43000031  54.31999969
C    14.60000038  16.31999969  53.40000153
C    13.88000011  16.31999969  54.61000061
C    12.50000000  16.42000008  54.66999817
C    22.27000046  14.40999985  54.31999969
H    22.63111877  15.04726887  55.12720490
H    17.82999992  15.31000042  56.38999939
H    16.69000053  16.18000031  51.50000000
H    19.13999939  16.00000000  51.04000092
H    21.44000053  15.17000008  51.70999908
H    20.05000114  14.82999992  55.73999786
H    11.92000008  16.44000053  55.59000015
H    23.01000214  14.53999996  53.52000427
H    22.27000046  13.35000038  54.59000015
