96

S    12.41000080  16.67000008  44.18000031
C     9.72999954  17.14999962  44.93999863
C    10.98000050  16.64999962  45.22999573
C    11.32999992  16.15999985  46.51000214
C    10.34999943  15.98000050  47.45999908
C     9.06999969  16.62999916  47.29000092
C     8.05999947  16.72999954  48.26000214
C     6.76999998  17.00000000  47.95999908
C     6.50000000  17.54999924  46.72000122
C     7.44000006  17.61000061  45.76000214
C     8.71000004  17.11000061  45.97000122
C    12.82999992  16.09000015  46.68000031
C    13.50000000  16.10000038  45.43000031
C    14.89999962  16.11999893  45.34000015
C     5.03999996  17.71999931  46.31000137
H     4.70610380  17.01591492  45.54784775
H     9.50000000  17.79999924  44.09999847
H    10.44999981  15.47000027  48.40999985
H     8.38000011  16.31999969  49.20999908
H     6.01999998  16.90999985  48.74000168
H     7.22000027  18.07999992  44.79999924
H    15.44999981  16.23999977  44.40999985
H     4.48000002  17.61999893  47.23999786
H     4.90999985  18.73999977  45.93000031
S    16.03999901  15.81999969  49.15999985
C    18.55999947  15.15999985  48.56999969
C    17.35999870  15.57999992  48.11999893
C    17.05000114  15.85999966  46.72000122
C    18.09999847  15.85999966  45.84000015
C    19.45999908  15.57000065  46.31000137
C    20.52999878  15.51000023  45.35999680
C    21.78999901  15.01999950  45.77999878
C    21.93000031  14.59000015  47.15999985
C    20.95000076  14.70000076  48.06999969
C    19.67000008  15.14999962  47.68000031
C    15.60999966  16.09000015  46.56999969
C    14.89999962  16.06999969  47.80000305
C    13.50999928  16.06999969  47.88999939
C    23.22999954  14.11000061  47.56000137
H    23.55252457  14.83918953  48.30321121
H    18.73999977  14.88000011  49.61000061
H    17.93000031  15.98999977  44.78000259
H    20.39999962  15.78999996  44.31999969
H    22.56999969  14.75999928  45.06999969
H    21.15999985  14.50000000  49.12000275
H    12.90999985  16.18000031  48.79000092
H    23.88999939  14.01000023  46.68000031
H    23.09000015  13.10999966  47.97000122
S    11.56000042  17.17000008  50.97000122
C     8.85999966  17.45000076  51.68000031
C    10.15999985  17.19000053  52.05999756
C    10.52000046  16.90000153  53.40000153
C     9.47000027  16.79000092  54.31000137
C     8.10999966  16.95000076  53.93000031
C     7.05999947  17.13000107  54.89999771
C     5.78999996  17.56999969  54.58000183
C     5.55000019  17.92000008  53.27999878
C     6.56000042  17.89999962  52.31999969
C     7.88999987  17.42000008  52.58999634
C    11.96000004  16.77999878  53.59000397
C    12.61999989  16.97999954  52.35000229
C    14.09000015  17.10000038  52.34000397
C     4.23999977  18.45000076  52.71999741
H     3.74634242  17.67425346  52.13466263
H     8.71999931  17.81999969  50.65999985
H     9.63000011  16.69000053  55.38000107
H     7.32999992  17.02999878  55.94999695
H     5.05000019  17.77000046  55.34000015
H     6.38000011  18.18000031  51.27999878
H    14.60999966  17.40999985  51.44000244
H     3.58000016  18.78000069  53.53000259
H     4.44000006  19.29999924  52.04999924
S    15.17000008  15.90999985  55.90000153
C    17.71999931  15.53999996  55.21999741
C    16.57999992  16.06999969  54.86999893
C    16.22999954  16.52000046  53.54999924
C    17.20000076  16.65999985  52.60000229
C    18.51000023  16.18999863  52.94000244
C    19.48999977  16.07999992  51.93999863
C    20.65000153  15.38000011  52.16999817
C    20.95999908  14.89999962  53.44999695
C    20.03999901  15.01999950  54.47000122
C    18.77000046  15.62000084  54.23999786
C    14.84000015  16.75000000  53.50999832
C    14.14000034  16.42000008  54.65999985
C    12.74000072  16.47999954  54.78000259
C    22.42000198  14.57999992  53.83999634
H    22.77354622  15.22937012  54.64088821
H    17.89999962  15.01000023  56.16000366
H    16.87999916  16.76000023  51.56999969
H    19.29000092  16.54000092  50.97999954
H    21.40999985  15.31999969  51.38999939
H    20.35000038  14.57999992  55.41999817
H    12.25000000  16.17000008  55.70000076
H    23.03999901  14.45000076  52.94000244
H    22.29999924  13.52000046  54.09999847
