96

S    12.18000031  17.17000008  44.12000275
C     9.42000008  17.14999962  44.62999725
C    10.70000076  16.77999878  45.00999832
C    10.98999977  16.39000130  46.36000061
C    10.03000069  16.18999863  47.36000061
C     8.69999981  16.53000069  47.05999756
C     7.67000008  16.59000015  47.97999954
C     6.39999962  16.97999954  47.63999939
C     6.10000038  17.46000099  46.30000305
C     7.11000013  17.60000038  45.40000153
C     8.38999939  17.04000092  45.70000076
C    12.41000080  16.46000099  46.62000275
C    13.19000053  16.92000008  45.48999786
C    14.60000038  17.02999878  45.47000122
C     4.65999985  17.79999924  45.90999985
H     4.33996058  17.47268677  44.92078781
H     9.26999950  17.70000076  43.70999908
H    10.46000004  15.93000031  48.31999969
H     7.86999989  16.36999893  49.02999878
H     5.55000019  16.95999908  48.31999969
H     7.00999975  18.00000000  44.38999939
H    15.17000008  17.26000023  44.58000183
H     3.97000027  17.52000046  46.72000122
H     4.55000019  18.89000130  45.94999695
S    15.59999943  15.80999947  49.01000214
C    18.31999969  15.25000000  48.23999786
C    17.10000038  15.75000000  48.00000000
C    16.72000122  16.21999931  46.75000000
C    17.71999931  16.39000130  45.76000214
C    19.00000000  15.88999939  46.00000000
C    19.98999977  15.82999992  45.04000092
C    21.24000168  15.38000011  45.30000305
C    21.63999939  14.86999989  46.55000305
C    20.68000031  14.94999981  47.57999802
C    19.36000061  15.39000034  47.29999924
C    15.31000042  16.54000092  46.56000137
C    14.52999973  16.28000069  47.75000000
C    13.15999985  16.25000000  47.81999969
C    23.11000061  14.47999954  46.88000107
H    23.43980598  14.95319843  47.80488586
H    18.51000023  14.70000076  49.15000153
H    17.57999992  16.72000122  44.72999954
H    19.88000107  16.31999969  44.06999969
H    21.96000099  15.47000027  44.50000000
H    20.81000137  14.57999992  48.60000229
H    12.64999962  15.77999973  48.64999771
H    23.78999901  14.63000107  46.04000092
H    23.19999886  13.40999985  47.09999847
S    16.39000130  13.09000015  52.04999924
C    18.98999977  12.41000080  51.36000061
C    17.67000008  12.32999992  51.02000427
C    17.22999954  12.03999996  49.69999695
C    18.09999847  11.69999981  48.74000168
C    19.48999977  11.73999977  49.02999878
C    20.42000008  11.39999962  48.01000214
C    21.73000145  11.49000072  48.30999756
C    22.20999908  11.75000000  49.71000290
C    21.31000137  12.05999947  50.65999985
C    19.93999863  12.07999992  50.31000137
C    15.78999996  12.28999996  49.55999756
C    15.22999954  12.81999969  50.73999786
C    13.90999985  13.09000015  50.91999817
C    23.62999916  11.28000069  50.06000137
H    23.95524406  11.41840172  51.09109879
H    19.37000084  12.72999954  52.32999802
H    17.78000069  11.26999950  47.78999710
H    19.96000099  11.21999931  47.04000092
H    22.42000198  11.03000069  47.61000061
H    21.51000023  12.11999989  51.72999954
H    13.43000031  13.15000057  51.90000153
H    23.61999893  10.19999981  49.86000061
H    24.34999847  11.67000008  49.33000183
S    12.32999992  12.38000011  47.30999756
C     9.68999958  12.57999992  48.22000122
C    11.06999969  12.57999992  48.52000427
C    11.63000011  12.96000004  49.78000259
C    10.71000004  13.30999947  50.75000000
C     9.30000019  13.26000023  50.51000214
C     8.38999939  13.63999939  51.52000046
C     7.02000046  13.69999981  51.25999832
C     6.52999973  13.38000107  50.00999832
C     7.37999964  13.01000023  48.97999573
C     8.80999947  12.94000053  49.20999908
C    13.07000065  12.89999962  49.80999756
C    13.66000080  12.55000019  48.54999924
C    14.96999931  12.25999928  48.43999863
C     5.05999994  13.63000011  49.69999695
H     4.80723190  13.41936016  48.66084290
H     9.35999966  12.10999966  47.29999924
H    11.00000000  13.64999962  51.73999786
H     8.78000069  14.00000000  52.47000122
H     6.28000021  14.04999924  51.97999954
H     6.98999977  12.67000008  48.02000046
H    15.42000008  12.17000008  47.45999908
H     4.76999998  14.68000031  49.88999939
H     4.48999977  13.02000046  50.40999985
