96

S    12.07999992  16.92000008  44.08000183
C     9.48999977  17.00000000  44.77000427
C    10.75000000  16.65999985  45.07999802
C    11.11999989  16.23999977  46.38999939
C    10.21999931  16.31000137  47.45999908
C     8.93999958  16.76000023  47.22000122
C     7.90000010  16.86000061  48.18999863
C     6.58999968  17.26000023  47.84999847
C     6.25999975  17.50000000  46.49000168
C     7.17000008  17.38999939  45.48999786
C     8.50000000  17.05000114  45.84999847
C    12.55000019  16.26000023  46.53999710
C    13.20000076  16.70999908  45.40999985
C    14.55000019  16.80999947  45.26000214
C     4.84000015  17.86999893  46.16000366
H     4.54437542  17.84184456  45.11123657
H     9.28999996  17.43000031  43.79000092
H    10.50000000  16.03999901  48.47999954
H     8.10999966  16.65999985  49.23999786
H     5.88999987  17.42000008  48.66000366
H     7.00000000  17.68000031  44.45000076
H    15.06999969  17.09000015  44.34000015
H     4.25000000  17.14999962  46.73999786
H     4.55999994  18.78000069  46.70000076
S    15.69000053  15.54999924  48.88999939
C    18.40999985  15.39000034  48.11000061
C    17.12000084  15.80000019  47.84999847
C    16.69000053  16.15999985  46.52999878
C    17.64999962  16.26000023  45.54999924
C    19.03000069  15.82999992  45.80999756
C    20.00000000  15.73999977  44.81999969
C    21.28000069  15.40999985  45.18000031
C    21.65999985  15.01999950  46.45999908
C    20.69999886  15.06999969  47.43999863
C    19.37999916  15.39000034  47.12999725
C    15.29000092  16.39000130  46.42000198
C    14.65000057  16.00000000  47.56999969
C    13.26000023  15.92000008  47.63999939
C    23.02000046  14.52999973  46.81000137
H    23.34114075  15.15831757  47.64077759
H    18.67000008  15.17000008  49.13999939
H    17.35999870  16.55999947  44.54999924
H    19.72999954  16.07999992  43.82999802
H    22.04999924  15.21999931  44.43999863
H    20.98999977  14.67000008  48.40999985
H    12.86999893  15.52999973  48.56999969
H    23.61999893  14.51000023  45.89000320
H    22.84000015  13.48000050  47.05999756
S    16.04999924  13.38000107  52.04999924
C    18.56999969  12.67000008  51.38000107
C    17.28999901  12.63000011  51.12999725
C    16.84999847  12.02000046  49.97000122
C    17.71000099  11.47999954  48.99000168
C    19.11999893  11.54000092  49.23999786
C    20.06999969  11.03000069  48.34000015
C    21.42000008  10.88000107  48.63999939
C    21.91999817  11.30000019  49.92000198
C    20.95999908  11.84999943  50.79000092
C    19.54000092  12.03999996  50.52999878
C    15.43000031  12.20999908  49.78000259
C    14.80999947  12.84000015  50.84999847
C    13.45000076  13.15000057  50.90999985
C    23.44000053  11.14999962  50.15999603
H    23.64124107  11.36561584  51.20933533
H    18.89999962  13.12000084  52.30999756
H    17.38000107  10.97000027  48.09000015
H    19.70000076  10.57000065  47.42000198
H    22.09000015  10.39000034  47.93000031
H    21.28999901  12.30999947  51.72000122
H    12.97999954  13.47000027  51.83000183
H    23.82999802  10.17000008  49.88999939
H    23.98999977  11.78999996  49.47000122
S    12.13999939  11.87000084  47.43000031
C     9.46000004  12.61000061  48.15999985
C    10.85999966  12.67000008  48.34000015
C    11.31000042  13.17000008  49.61999893
C    10.47999954  13.71000099  50.54999924
C     9.10000038  13.71999931  50.33000183
C     8.28999996  14.27000046  51.32999802
C     6.97000027  14.45000076  50.98999786
C     6.44000006  14.00000000  49.65999985
C     7.14999962  13.19000053  48.81000137
C     8.57999992  13.09999943  49.06999969
C    12.71999931  12.94000053  49.78000259
C    13.34000015  12.27000046  48.68999863
C    14.61999989  11.85999966  48.68999863
C     5.00000000  14.37000084  49.27999878
H     4.72406578  14.07284069  48.26823807
H     9.07999992  12.05000019  47.29999924
H    10.77000046  14.01999950  51.56000137
H     8.64999962  14.63999939  52.29000092
H     6.40999985  15.06999969  51.68000031
H     6.71999979  12.74000072  47.90999985
H    15.05000019  11.39999962  47.80000305
H     5.03999996  15.46000004  49.20999908
H     4.28999996  14.15999985  50.07999802
