96

S    12.36999989  16.57999992  44.19000244
C     9.61999989  17.04000092  44.81999969
C    10.85999966  16.56999969  45.18000031
C    11.13000011  16.29999924  46.55000305
C    10.21999931  16.36000061  47.51999664
C     8.86999989  16.61000061  47.21000290
C     7.81000042  16.62999916  48.16999817
C     6.48999977  16.97000122  47.84999847
C     6.32000017  17.48999977  46.52000046
C     7.30999994  17.43000031  45.61000061
C     8.57999992  16.95999908  45.83000183
C    12.61000061  16.28000069  46.79999924
C    13.36999989  16.48999977  45.65000153
C    14.73999977  16.40999985  45.54999924
C     4.92999983  18.00000000  46.11000061
H     4.52627659  17.26595688  45.41265488
H     9.44999981  17.40999985  43.81999969
H    10.48999977  16.18000031  48.55999756
H     8.01999950  16.53000069  49.22999954
H     5.72000027  17.02000046  48.61000061
H     7.26000023  17.77000046  44.58000183
H    15.24000072  16.65999985  44.61999893
H     4.21999979  18.09999847  46.95000076
H     5.00999975  18.96000099  45.59999847
S    15.81999969  15.72000027  49.33000183
C    18.50000000  15.36000061  48.52000427
C    17.17000008  15.62000084  48.16999817
C    16.79999924  15.98999977  46.86000061
C    17.85000038  16.07999992  45.87999725
C    19.15999985  15.78999996  46.17000198
C    20.15000153  15.90000057  45.21999741
C    21.40999985  15.60999966  45.56999969
C    21.77999878  15.29000092  46.90999985
C    20.85000038  15.19999981  47.84999847
C    19.52999878  15.50000000  47.56000137
C    15.39000034  16.06999969  46.72999954
C    14.70999908  15.98999977  47.97999954
C    13.27000046  16.01000023  48.04999924
C    23.16999817  14.78999996  47.12999725
H    23.51182365  15.08996773  48.12059021
H    18.82999992  14.98000050  49.48999786
H    17.61000061  16.39000130  44.86999893
H    19.84000015  16.14999962  44.20999908
H    22.04000092  15.59000015  44.68999863
H    21.09000015  14.68999958  48.79000092
H    12.79000092  15.42000008  48.82999802
H    23.81000137  15.08999920  46.29000092
H    23.13999939  13.68999958  47.19999695
S    11.71000004  16.97000122  50.93999863
C     9.03999996  17.36999893  51.69000244
C    10.31000042  16.97000122  52.04000092
C    10.67999935  16.61999893  53.41999817
C     9.67000008  16.48999977  54.36000061
C     8.34000015  16.98999977  54.06000137
C     7.39000034  17.06999969  55.05000305
C     6.14000034  17.42000008  54.61999893
C     5.73999977  17.86999893  53.31999969
C     6.76000023  17.86999893  52.37999725
C     8.06999969  17.43999863  52.71999741
C    12.11999989  16.55999947  53.56999969
C    12.82999992  16.70999908  52.29000092
C    14.22000027  16.79999924  52.22999954
C     4.26000023  18.07999992  52.93000031
H     4.06392765  17.47077560  52.04767227
H     8.80000019  17.86999893  50.75000000
H     9.94000053  16.27000046  55.38999939
H     7.63999987  16.77000046  56.06999969
H     5.33999968  17.30999947  55.34999847
H     6.52999973  18.17000008  51.37000275
H    14.68000031  16.81999969  51.24000168
H     3.65000010  17.79999924  53.79000092
H     4.13999987  19.15999985  52.81999969
S    15.32999992  16.23999977  55.96000290
C    17.93000031  15.70000076  55.30000305
C    16.69999886  16.18999863  54.87999725
C    16.36000061  16.47999954  53.54000092
C    17.38000107  16.50000000  52.62000275
C    18.64999962  16.06999969  52.91999817
C    19.71999931  15.90999985  51.90000153
C    20.94000053  15.54999924  52.29000092
C    21.21000099  15.06999969  53.62999725
C    20.22000122  15.01999950  54.59000015
C    18.90999985  15.59999943  54.27000046
C    14.89999962  16.69000053  53.40000153
C    14.26000023  16.53000069  54.61999893
C    12.84999943  16.54000092  54.73999786
C    22.56000137  14.67000008  54.02000046
H    22.72296524  15.01718426  55.04029846
H    18.04000092  14.96000099  56.09000397
H    17.26000023  16.87999916  51.60999680
H    19.62000084  16.27000046  50.87999725
H    21.71999931  15.59999943  51.53999710
H    20.22000122  14.52999973  55.56000137
H    12.41000080  16.55999947  55.73999786
H    23.31999969  15.14000034  53.36999893
H    22.65999985  13.60999966  53.79000092
