96

S    12.23000050  16.73999977  44.18000031
C     9.65999985  17.20000076  44.93000031
C    10.88999939  16.61999893  45.27000046
C    11.23999977  16.20000076  46.60999680
C    10.19000053  16.14999962  47.55000305
C     8.93999958  16.64999962  47.22000122
C     7.92000008  16.64999962  48.22000122
C     6.74000025  17.22999954  47.93000031
C     6.34999990  17.53999901  46.59999847
C     7.32999992  17.45000076  45.61999893
C     8.67999935  17.13999939  45.91999817
C    12.64999962  16.20000076  46.73999786
C    13.35999966  16.46999931  45.50000000
C    14.68000031  16.36000061  45.47000122
C     4.92999983  17.89999962  46.20999908
H     4.59010887  17.35762024  45.32772827
H     9.47000027  17.59000015  43.93000031
H    10.42000008  15.93000031  48.59000397
H     8.23000050  16.39000130  49.22999954
H     6.03999996  17.45000076  48.72000122
H     7.23000002  17.79000092  44.59000015
H    15.14000034  16.60000038  44.52000046
H     4.34999990  17.72999954  47.11999893
H     4.92999983  18.98999977  46.02000427
S    15.69000053  15.53999996  49.16999817
C    18.39999962  15.17000008  48.36999893
C    17.10000038  15.51000023  48.06999969
C    16.79000092  15.98999977  46.81000137
C    17.79999924  16.04999924  45.83000183
C    19.13999939  15.75000000  46.12999725
C    20.13999939  15.76000023  45.14999771
C    21.45999908  15.44999981  45.54000092
C    21.78999901  15.31000042  46.91999817
C    20.79999924  15.29000092  47.88000107
C    19.47999954  15.34999943  47.48000336
C    15.36999893  16.14999962  46.68000031
C    14.60000038  15.95999908  47.83000183
C    13.26000023  15.95000076  47.88000107
C    23.22000122  15.01000023  47.22999954
H    23.52622223  15.38743591  48.20563889
H    18.71000099  14.88000011  49.36999893
H    17.53999901  16.46000099  44.86000061
H    20.02000046  16.06999969  44.12000275
H    22.25000000  15.24000072  44.82999802
H    21.02999878  15.11999989  48.93000031
H    12.74000072  15.52000046  48.74000168
H    23.90999985  15.34999943  46.44000244
H    23.25000000  13.92000008  47.34000397
S    11.79999924  17.00000000  50.97000122
C     9.21000004  17.35999870  51.65999985
C    10.40999985  16.87999916  51.98999786
C    10.69000053  16.50000000  53.36000061
C     9.61999989  16.52000046  54.29999924
C     8.34000015  16.95999908  53.93000031
C     7.23999977  16.90000153  54.79999924
C     5.97000027  17.28999901  54.40999985
C     5.78999996  17.81999969  53.15000153
C     6.83000040  17.80999947  52.21000290
C     8.10999966  17.31999969  52.55000305
C    12.11999989  16.26000023  53.52000427
C    12.88000011  16.61000061  52.35000229
C    14.22999954  16.79000092  52.30999756
C     4.38000011  18.27000046  52.75000000
H     4.04888773  17.92509270  51.77045822
H     8.98999977  17.92000008  50.76000214
H     9.88000011  16.10000038  55.27000046
H     7.40999985  16.46000099  55.77999878
H     5.12000036  17.09000015  55.06000137
H     6.77999973  18.31999969  51.25000000
H    14.68000031  17.20999908  51.40999603
H     3.65000010  17.75000000  53.37999725
H     4.11000013  19.31999969  52.87000275
S    15.26000023  15.54999924  55.93999863
C    17.97000122  15.40999985  55.22999573
C    16.64999962  15.78999996  54.93999863
C    16.38000107  16.29999924  53.63999939
C    17.43000031  16.55999947  52.80000305
C    18.77000046  16.10000038  53.09999847
C    19.76000023  16.31999969  52.21000290
C    20.97999954  15.78999996  52.44999695
C    21.25000000  15.01000023  53.56999969
C    20.28000069  14.75000000  54.48999786
C    19.00000000  15.40999985  54.29999924
C    14.96000099  16.39999962  53.43000031
C    14.23999977  16.10999870  54.62999725
C    12.82999992  16.03999901  54.66999817
C    22.57999802  14.37999916  53.83999634
H    23.06664467  15.08785057  54.51098251
H    18.18000031  14.77000046  56.09000397
H    17.35000038  17.05000114  51.83000183
H    19.67000008  17.02000046  51.38000107
H    21.75000000  15.85999966  51.69000244
H    20.48999977  14.13000011  55.35999680
H    12.38999939  15.86999989  55.65000153
H    23.05999947  14.34999943  52.84999847
H    22.46999931  13.35999966  54.22999954
