96

S    12.43999958  17.21999931  44.34000015
C     9.75000000  17.51000023  44.91000366
C    11.00999928  17.10000038  45.34999847
C    11.38000011  16.62999916  46.66999817
C    10.34999943  16.60000038  47.57999802
C     9.06000042  17.01000023  47.22000122
C     7.97999954  16.90000153  48.09000015
C     6.70000029  17.46000099  47.78999710
C     6.39999962  17.94000053  46.47999573
C     7.42999983  17.97000122  45.54999924
C     8.71000004  17.46999931  45.90999985
C    12.84999943  16.61999893  46.86999893
C    13.59000015  16.76000023  45.63999939
C    14.98000050  16.77000046  45.58000183
C     4.96000004  18.26000023  46.09000397
H     4.69745445  17.65890884  45.21945190
H     9.65999985  18.27000046  44.13999939
H    10.43000031  16.00000000  48.47999954
H     8.19000053  16.40999985  49.03999710
H     5.88999987  17.27000046  48.47999954
H     7.26000023  18.34000015  44.54999924
H    15.36000061  17.01000023  44.59000015
H     4.23999977  17.93000031  46.84999847
H     4.88000011  19.32999992  45.86000061
S    16.14999962  15.84000015  49.36000061
C    18.73999977  15.31000042  48.47999954
C    17.46000099  15.72000027  48.20999908
C    17.13999939  16.13000107  46.88999939
C    18.09000015  16.11999893  45.83000183
C    19.40000153  15.65999985  46.05999756
C    20.45000076  15.67999935  45.08999634
C    21.70000076  15.27999973  45.40000153
C    21.98999786  14.77000046  46.72999954
C    20.97999954  14.68000031  47.70999908
C    19.70000076  15.27999973  47.43999863
C    15.71000004  16.45000076  46.75000000
C    14.96000099  16.27000046  47.98999786
C    13.55999947  16.32999992  48.02000046
C    23.43000031  14.47999954  47.11000061
H    23.66405487  15.04740810  48.01075745
H    19.09000015  14.85000038  49.40000153
H    17.75000000  16.31999969  44.81999969
H    20.30999947  16.09000015  44.09999847
H    22.46999931  15.36000061  44.64000320
H    21.07000160  14.17000008  48.67000198
H    13.09999943  16.22999954  48.99000168
H    24.05999947  14.88000011  46.31000137
H    23.64000130  13.40000057  47.09000015
S    11.75000000  17.35000038  50.93000031
C     9.15999985  17.72999954  51.79999924
C    10.40999985  17.20000076  52.02999878
C    10.84000015  16.61000061  53.27999878
C     9.85000038  16.46999931  54.22999954
C     8.56000042  17.00000000  54.05000305
C     7.53999996  16.79999924  55.05000305
C     6.23000050  17.20000076  54.85000229
C     5.84000015  17.78000069  53.63999939
C     6.81999969  18.00000000  52.67000198
C     8.22000027  17.61999893  52.84000015
C    12.25999928  16.46999931  53.39000320
C    12.89999962  16.95000076  52.25999832
C    14.28999996  16.77999878  52.09000015
C     4.34999990  17.93000031  53.22999954
H     4.06617498  17.35488129  52.34864807
H     8.86999989  18.25000000  50.87999725
H    10.05000019  15.78999996  55.05000305
H     7.90999985  16.34000015  55.96000290
H     5.51999998  17.18000031  55.66999817
H     6.54999971  18.54999924  51.77999878
H    14.70000076  17.30999947  51.24000168
H     3.65999985  17.63000107  54.02999878
H     4.23999977  19.00000000  53.02999878
S    15.38000011  15.59000015  55.76000214
C    18.05999947  15.42000008  55.15999603
C    16.86000061  15.95999908  54.78000259
C    16.50000000  16.38000107  53.43999863
C    17.56000137  16.46000099  52.55000305
C    18.94000053  16.05999947  52.95000076
C    20.06999969  16.13000107  52.05999756
C    21.25999832  15.62999916  52.43999863
C    21.45000076  14.91000080  53.69999695
C    20.43999863  14.98000050  54.62999725
C    19.18000031  15.52000046  54.25000000
C    15.03000069  16.34000015  53.18999863
C    14.35999966  15.98999977  54.36999893
C    13.00000000  16.05999947  54.47000122
C    22.82999992  14.30999947  54.05000305
H    23.21210289  14.85485172  54.91327286
H    18.12000084  14.82999992  56.06999969
H    17.32999992  16.79000092  51.53999710
H    19.89999962  16.52000046  51.05999756
H    22.01000023  15.54999924  51.65000153
H    20.48999977  14.55999947  55.63000107
H    12.48999977  15.77999973  55.38999939
H    23.61000061  14.46000004  53.29999924
H    22.80999947  13.22000027  54.15999985
