96

S    12.76000023  17.10000038  44.31999969
C    10.11000061  17.56000137  44.79000092
C    11.32999992  17.25000000  45.28999710
C    11.64999962  16.87999916  46.62000275
C    10.54999924  16.77000046  47.43000031
C     9.19000053  16.98999977  46.97999954
C     8.07999992  16.90999985  47.80000305
C     6.81999969  17.22999954  47.42000198
C     6.60000038  17.72999954  46.12999725
C     7.64999962  17.82999992  45.27000046
C     8.97999954  17.46000099  45.65999985
C    13.12000084  16.64999962  46.88999939
C    13.81000042  16.75000000  45.68999863
C    15.17000008  16.55999947  45.54999924
C     5.23000002  18.29000092  45.70999908
H     4.57022762  17.55462837  45.24953461
H     9.96999931  17.95999908  43.79000092
H    10.65000057  16.63999939  48.50999832
H     8.26000023  16.61000061  48.82999802
H     5.96000004  17.13000107  48.06999969
H     7.53999996  18.52000046  44.43999863
H    15.67999935  16.46000099  44.59999847
H     4.73000002  18.73999977  46.58000183
H     5.29999971  19.17000008  45.06999969
S    16.29999924  15.95999908  49.26000214
C    18.95000076  15.62999916  48.44999695
C    17.65999985  15.88000107  48.08000183
C    17.29999924  16.13999939  46.77999878
C    18.25000000  16.07999992  45.77000046
C    19.60000038  15.78999996  46.06999969
C    20.52999878  15.54999924  45.04000092
C    21.80000114  15.24000072  45.27999878
C    22.11999893  14.91000080  46.68000031
C    21.18000031  15.03000069  47.68000031
C    19.89999962  15.57999992  47.41000366
C    15.88000107  16.43000031  46.72999954
C    15.19999981  16.32999992  48.01000214
C    13.82999992  16.28000069  48.08000183
C    23.51000023  14.44000053  47.06999969
H    23.69416046  14.63098145  48.12721634
H    19.30999947  15.36000061  49.43999863
H    17.92000008  16.25000000  44.73999786
H    20.20999908  15.59999943  44.00000000
H    22.50999832  15.22999954  44.45999908
H    21.35999870  14.65000057  48.68000031
H    13.30999947  16.04999924  49.01000214
H    24.23999977  14.85000038  46.36000061
H    23.54000092  13.35000038  46.90999985
S    15.54999924  13.20000076  52.31999969
C    18.20999908  12.69999981  51.59000015
C    16.84000015  12.81000042  51.29000092
C    16.38000107  12.56000042  49.88999939
C    17.20000076  12.30000019  48.85000229
C    18.53000069  12.13999939  49.19000244
C    19.52999878  11.90999985  48.18000031
C    20.88999939  11.61000061  48.50999832
C    21.25000000  11.71000004  49.86999893
C    20.36999893  12.05000019  50.81999969
C    19.04999924  12.30000019  50.52000046
C    14.94999981  12.76999950  49.73999786
C    14.37000084  13.09999943  51.00000000
C    13.03999996  13.59000015  51.09000397
C    22.72999954  11.47999954  50.12000275
H    23.16075516  11.81503201  51.06356049
H    18.51000023  13.15999985  52.52999878
H    16.82999992  12.20999908  47.83000183
H    19.11000061  11.67000008  47.19999695
H    21.63000107  11.44000053  47.74000168
H    20.69999886  12.23999977  51.84000015
H    12.68000031  13.86000061  52.08000183
H    22.96999931  10.43000031  49.88999939
H    23.32999992  11.92000008  49.31000137
S    11.71000004  13.09000015  47.36999893
C     9.04999924  13.38999939  48.15999985
C    10.36000061  13.40000057  48.47000122
C    10.76000023  13.43999958  49.86999893
C     9.77999973  13.64999962  50.89000320
C     8.43999958  13.86000061  50.54999924
C     7.63999987  14.53999996  51.42000198
C     6.35999966  14.80999947  51.07999802
C     5.80999947  14.47000027  49.86999893
C     6.67999983  13.94999981  48.95000076
C     8.07999992  13.69999981  49.18000031
C    12.18999958  13.42000008  49.93999863
C    12.82999992  13.10999966  48.72000122
C    14.18000031  12.92000008  48.54999924
C     4.32000017  14.57999992  49.62999725
H     4.13985634  14.29897594  48.59236908
H     8.85000038  13.31999969  47.09999847
H    10.11000061  13.93000031  51.88999939
H     8.07999992  14.85999966  52.36999893
H     5.80999947  15.21999931  51.91999817
H     6.34000015  13.55000019  48.00000000
H    14.53999996  12.74000072  47.54000092
H     3.96000004  15.59999943  49.79000092
H     3.75000000  13.82999992  50.20000076
