96

S    12.55000019  17.40999985  44.10999680
C     9.94000053  17.61000061  44.93000031
C    11.17000008  17.23999977  45.20999908
C    11.51000023  16.73999977  46.52000046
C    10.51000023  16.43000031  47.44999695
C     9.15000057  16.79999924  47.21000290
C     8.07999992  16.59000015  48.13999939
C     6.88000011  17.10000038  47.87000275
C     6.57999992  17.71000099  46.62000275
C     7.53999996  17.82999992  45.72000122
C     8.89000034  17.38999939  45.90999985
C    12.90999985  16.64999962  46.68000031
C    13.60000038  16.90000153  45.52000046
C    14.96000099  16.69999886  45.40999985
C     5.21000004  18.11000061  46.25999832
H     4.76279736  17.39305687  45.57144928
H     9.61999989  18.19000053  44.06000137
H    10.80999947  16.03999901  48.41999817
H     8.22000027  16.13000107  49.12000275
H     6.09000015  17.01000023  48.61000061
H     7.34000015  18.40999985  44.81999969
H    15.32999992  16.64999962  44.38999939
H     4.48999977  18.27000046  47.08000183
H     5.26000023  19.06999969  45.73999786
S    15.93999958  15.48999977  49.06999969
C    18.56999969  15.10000038  48.39000320
C    17.36999893  15.64000034  47.98999786
C    17.14999962  16.20000076  46.75000000
C    18.13999939  16.26000023  45.77000046
C    19.45999908  15.86999989  46.20999908
C    20.55999947  15.88999939  45.31999969
C    21.73000145  15.29000092  45.65000153
C    21.91999817  14.75999928  46.97999954
C    20.93000031  14.73999977  47.84000015
C    19.64999962  15.26000023  47.52999878
C    15.73999977  16.44000053  46.55000305
C    14.93000031  15.95999908  47.67000198
C    13.56999969  16.21999931  47.85999680
C    23.28000069  14.22999954  47.39999771
H    23.61597824  14.80187988  48.26496506
H    18.60999870  14.67000008  49.38000107
H    17.95999908  16.42000008  44.71000290
H    20.43000031  16.36999893  44.34999847
H    22.46999931  15.07999992  44.87999725
H    21.04000092  14.14000034  48.74000168
H    13.02999973  15.98999977  48.77999878
H    24.03000069  14.27999973  46.59999847
H    23.09999847  13.15999985  47.56999969
S    15.80000019  12.72999954  52.31999969
C    18.53999901  12.36999989  51.56999969
C    17.20000076  12.30000019  51.24000168
C    16.67000008  11.92999935  49.89999771
C    17.64000130  11.59000015  48.94000244
C    18.98999977  11.54999924  49.23999786
C    19.97999954  11.03000069  48.31999969
C    21.22999954  10.93000031  48.66000366
C    21.70000076  11.25000000  49.98000336
C    20.84000015  11.80999947  50.94999695
C    19.40999985  11.87999916  50.56999969
C    15.22999954  12.15999985  49.75000000
C    14.68999958  12.79999924  50.93000031
C    13.38000107  13.32999992  50.91999817
C    23.15999985  11.09000015  50.27999878
H    23.50085640  11.54447365  51.21025085
H    18.81999969  12.89999962  52.48000336
H    17.31999969  11.11999989  48.01000214
H    19.68000031  10.59000015  47.36999893
H    21.90999985  10.48999977  47.93000031
H    21.07999992  12.23999977  51.91999817
H    12.98999977  13.63999939  51.88000107
H    23.35000038  10.01000023  50.20999908
H    23.67000198  11.44999981  49.36999893
S    11.96000004  12.48000050  47.30999756
C     9.30000019  13.19000053  48.06999969
C    10.65000057  13.14000034  48.30999756
C    11.18999958  13.38000107  49.65000153
C    10.32999992  13.73000050  50.65999985
C     8.94999981  13.71999931  50.47999954
C     8.10999966  14.29999924  51.45999908
C     6.69000053  14.37999916  51.32999802
C     6.15999985  13.93000031  50.07999802
C     6.98000002  13.40000057  49.08000183
C     8.39999962  13.40999985  49.20999908
C    12.58999920  13.14000034  49.75999832
C    13.10999966  12.46999931  48.63999939
C    14.37999916  11.94000053  48.61999893
C     4.69000006  14.06000042  49.85000229
H     4.44304371  13.75493622  48.83312225
H     8.73000050  12.84999943  47.21000290
H    10.72000027  14.04000092  51.63000107
H     8.61999989  14.63000107  52.36000061
H     6.17000008  14.93000031  52.11000061
H     6.57999992  13.17000008  48.09999847
H    14.88999939  11.51000023  47.76000214
H     4.56999969  15.14999962  49.88999939
H     4.09000015  13.50999928  50.58000183
