96

S    11.87000084  16.94000053  44.54999924
C     9.34000015  17.35999870  45.27000046
C    10.54999924  16.87000084  45.68000031
C    10.97000027  16.46999931  47.02000046
C    10.05000019  16.61000061  47.94000244
C     8.65999985  16.98999977  47.61000061
C     7.51999950  16.90000153  48.48999786
C     6.25999975  17.20999908  48.04999924
C     6.03999996  17.56999969  46.70000076
C     7.03999996  17.78000069  45.86999893
C     8.38000011  17.39999962  46.26999664
C    12.42000008  16.25000000  47.08000183
C    12.98999977  16.52000046  45.81999969
C    14.32000065  16.36999893  45.61000061
C     4.61000013  17.88999939  46.29000092
H     4.29329824  17.54575920  45.30547333
H     9.10000038  17.68000031  44.26000214
H    10.10000038  16.23999977  48.95999908
H     7.65999985  16.35000038  49.41999817
H     5.46000004  17.15999985  48.77999878
H     6.96000004  18.18000031  44.86000061
H    14.82999992  16.65999985  44.69999695
H     3.97000027  17.71000099  47.16999817
H     4.67999983  18.97999954  46.24000168
S    15.77999973  15.53999996  49.19000244
C    18.36000061  15.25000000  48.29999924
C    17.06999969  15.59000015  48.02999878
C    16.67000008  15.93000031  46.69000244
C    17.65999985  16.13999939  45.75000000
C    19.04000092  15.75000000  46.00999832
C    20.06999969  15.77000046  45.00000000
C    21.35000038  15.32999992  45.21999741
C    21.63000107  14.85999966  46.47999573
C    20.69999886  14.80999947  47.50000000
C    19.31999969  15.25000000  47.29999924
C    15.19999981  16.07999992  46.70000076
C    14.60000038  15.85000038  47.95999908
C    13.22000027  15.93999958  48.13999939
C    23.01000214  14.47999954  46.95999908
H    23.26835251  15.07564831  47.83553314
H    18.50000000  14.75999928  49.25000000
H    17.52000046  16.61999893  44.78000259
H    19.96000099  16.26000023  44.03999710
H    22.13999939  15.48999977  44.47999954
H    21.04000092  14.42999935  48.46000290
H    12.75000000  15.67000008  49.08000183
H    23.69999886  14.56999969  46.11999893
H    23.01000214  13.40000057  47.16999817
S    11.87000084  17.26000023  51.04999924
C     9.22000027  17.54999924  51.83000183
C    10.44000053  17.14999962  52.15999985
C    10.76000023  16.80999947  53.52000427
C     9.81999969  16.68000031  54.54999924
C     8.47999954  17.00000000  54.18000031
C     7.48000050  17.17000008  55.15999603
C     6.25000000  17.64999962  54.82999802
C     5.92999983  18.02999878  53.47999954
C     6.89000034  17.94000053  52.52999878
C     8.18000031  17.42000008  52.81000137
C    12.30000019  16.70999908  53.67000198
C    12.96000004  17.00000000  52.49000168
C    14.34999943  17.02999878  52.37999725
C     4.44000006  18.35000038  53.02000046
H     4.15498686  17.77997208  52.13572693
H     8.96000004  18.00000000  50.87999725
H    10.06000042  16.68000031  55.61000061
H     7.72000027  16.75000000  56.12999725
H     5.50000000  17.57999992  55.61999893
H     6.69000053  18.38999939  51.56000137
H    14.89999962  17.29999924  51.47999573
H     3.68999982  18.25000000  53.81999969
H     4.50000000  19.43000031  52.81000137
S    15.52999973  15.81999969  56.02000427
C    18.13999939  15.50000000  55.30000305
C    16.92000008  15.88999939  54.87999725
C    16.52000046  16.29999924  53.56999969
C    17.59000015  16.50000000  52.70000076
C    18.88000107  16.03999901  53.01000214
C    19.95000076  16.29999924  52.11999893
C    21.19999886  15.95999908  52.50999832
C    21.45000076  15.39000034  53.73000336
C    20.46999931  15.11000061  54.58000183
C    19.17000008  15.50000000  54.29999924
C    15.10000038  16.61000061  53.50000000
C    14.42000008  16.44000053  54.72000122
C    13.05999947  16.56999969  54.81999969
C    22.89999962  15.00000000  54.10999680
H    23.24021530  15.72480583  54.84959793
H    18.37000084  15.11000061  56.29000092
H    17.45000076  17.02999878  51.76000214
H    19.73999977  16.50000000  51.06999969
H    21.93000031  15.98000050  51.70999908
H    20.72000122  14.82999992  55.59999847
H    12.51000023  16.21000099  55.68000031
H    23.45999908  15.00000000  53.16999817
H    23.01000214  13.96999931  54.47000122
