96

S    12.15000057  16.84999847  43.93000031
C     9.48999977  17.23999977  44.73999786
C    10.80000019  16.79000092  45.01999664
C    11.13000011  16.29999924  46.31999969
C    10.10000038  16.13000107  47.25000000
C     8.78000069  16.50000000  46.93999863
C     7.75000000  16.51000023  47.98999786
C     6.48000002  16.95999908  47.61000061
C     6.14000034  17.31999969  46.27999878
C     7.09999990  17.36999893  45.30000305
C     8.43999958  17.06999969  45.63999939
C    12.53000069  16.05999947  46.45000076
C    13.20000076  16.28999901  45.27000046
C    14.59000015  16.27000046  45.20000076
C     4.77999973  17.78000069  45.93999863
H     4.34897327  17.29695320  45.06308365
H     9.23999977  17.65999985  43.76999664
H    10.34000015  15.75000000  48.23999786
H     8.02999973  16.11999893  48.96999741
H     5.72000027  17.05000114  48.37999725
H     6.88000011  17.68000031  44.27999878
H    15.01999950  16.62999916  44.26000214
H     4.13999987  17.50000000  46.79000092
H     4.63000011  18.86000061  45.80999756
S    15.84000015  15.06999969  48.86000061
C    18.48999977  14.86999989  47.97999954
C    17.17000008  15.03000069  47.64999771
C    16.87000084  15.62000084  46.37000275
C    17.86999893  15.84000015  45.45999908
C    19.25000000  15.53999996  45.73999786
C    20.32999992  15.70000076  44.82999802
C    21.64999962  15.38000011  45.15999603
C    21.96000099  14.94999981  46.53999710
C    20.85000038  14.85999966  47.41000366
C    19.52999878  15.06999969  47.02999878
C    15.40999985  15.82999992  46.29000092
C    14.68999958  15.57000065  47.50999832
C    13.30000019  15.62999916  47.58999634
C    23.36000061  14.68999958  47.02000046
H    23.56134033  15.14301300  47.99074173
H    18.81999969  14.48999977  48.95000076
H    17.70000076  16.21999931  44.45999908
H    20.06999969  16.10999870  43.85000229
H    22.43999863  15.39000034  44.40999985
H    20.95000076  14.55999947  48.44999695
H    12.75000000  15.40999985  48.50000000
H    24.05999947  15.01999950  46.24000168
H    23.61999893  13.63000011  47.06999969
S    15.60999966  12.61999989  52.15000153
C    18.26000023  12.30000019  51.50000000
C    16.94000053  12.23999977  51.07999802
C    16.54000092  11.92999935  49.75000000
C    17.43999863  11.51000023  48.80000305
C    18.81000137  11.46999931  49.18000031
C    19.78999901  11.06999969  48.22999954
C    21.11999893  11.09000015  48.48999786
C    21.45000076  11.56000042  49.84000397
C    20.58000183  12.00000000  50.83000183
C    19.22000122  11.94000053  50.47000122
C    15.07999992  12.02999973  49.59000015
C    14.45000076  12.51999950  50.80999756
C    13.10999966  12.82999992  50.86999893
C    22.95999908  11.47999954  50.08999634
H    23.25734711  11.52247906  51.13779449
H    18.48999977  12.53000069  52.52999878
H    17.15999985  11.21000099  47.80000305
H    19.55999947  10.65999985  47.25000000
H    21.80999947  10.85000038  47.69000244
H    20.86000061  12.30000019  51.84000015
H    12.61000061  13.27000046  51.72999954
H    23.12999916  10.48999977  49.62999725
H    23.51000023  12.17000008  49.43999863
S    11.87999916  12.35000038  47.14000320
C     9.15999985  12.68000031  47.94000244
C    10.53999996  12.76999950  48.18000031
C    10.98999977  13.03999996  49.51000214
C    10.10000038  13.47000027  50.45000076
C     8.69999981  13.52000046  50.15999603
C     7.86000013  14.21000004  51.05999756
C     6.51000023  14.32999992  50.68000031
C     6.02999973  13.69999981  49.51000214
C     6.89000034  13.00000000  48.61999893
C     8.28999996  12.93000031  48.92000198
C    12.36999989  12.68000031  49.72999954
C    12.96000004  12.28000069  48.47999954
C    14.30999947  11.95000076  48.43999863
C     4.67999983  14.00000000  49.12000275
H     4.53635836  13.80608368  48.05705261
H     8.71999931  12.43000031  46.97999954
H    10.44000053  13.68999958  51.45999908
H     8.19000053  14.60999966  52.01000214
H     5.78999996  14.82999992  51.32999802
H     6.54999971  12.79999924  47.61000061
H    14.77000046  11.69000053  47.49000168
H     4.59000015  15.03999901  49.43999863
H     3.97000027  13.43999958  49.73999786
