96

S    12.48000050  16.90999985  44.40000153
C     9.85999966  17.50000000  45.12000275
C    11.10999966  17.09000015  45.54999924
C    11.44999981  16.69999886  46.86999893
C    10.47000027  16.79999924  47.81999969
C     9.15999985  17.20000076  47.48000336
C     8.05999947  17.15999985  48.36999893
C     6.78999996  17.61999893  47.88000107
C     6.57999992  17.92000008  46.50000000
C     7.55999994  17.80999947  45.65999985
C     8.89000034  17.54999924  46.10000229
C    12.89999962  16.52000046  46.98999786
C    13.53999996  16.59000015  45.72999954
C    14.88999939  16.36999893  45.61000061
C     5.25000000  18.23999977  45.96000290
H     4.88435984  17.61109924  45.14828110
H     9.67000008  17.75000000  44.08000183
H    10.72999954  16.67000008  48.87000275
H     8.22000027  16.86000061  49.40000153
H     5.89999962  17.61999893  48.48999786
H     7.50999975  17.89999962  44.58000183
H    15.29000092  16.31999969  44.61000061
H     4.59999990  18.23999977  46.84000015
H     5.32000017  19.29999924  45.68000031
S    16.21999931  15.70000076  49.27000046
C    18.76000023  15.11999989  48.37999725
C    17.52000046  15.50000000  48.09999847
C    17.10000038  15.97000027  46.75000000
C    18.00000000  16.03000069  45.70999908
C    19.34999847  15.62000084  45.98999786
C    20.43999863  15.77999973  45.04000092
C    21.70000076  15.31000042  45.27000046
C    22.00000000  15.01999950  46.65999985
C    21.04000092  14.78000069  47.60000229
C    19.69000053  15.15999985  47.32999802
C    15.70000076  16.20000076  46.72000122
C    15.01000023  16.13000107  48.04999924
C    13.66000080  16.29999924  48.13999939
C    23.50000000  14.80000019  47.00000000
H    23.75188446  15.17083168  47.99354935
H    19.03000069  14.68000031  49.34000015
H    17.86999893  16.21000099  44.64000320
H    20.17000008  16.23999977  44.09000015
H    22.43999863  15.36999893  44.47999954
H    21.25000000  14.37999916  48.59000397
H    13.15000057  16.28999901  49.09000015
H    24.17000008  15.32999992  46.31000137
H    23.81000137  13.75000000  46.93000031
S    12.15999985  17.35000038  51.06999969
C     9.56999969  17.79999924  51.77000046
C    10.80000019  17.31999969  52.16999817
C    11.16000080  16.95000076  53.44999695
C    10.11999989  16.77000046  54.33000183
C     8.76000023  17.14999962  54.02000046
C     7.68000031  17.14999962  54.99000168
C     6.40999985  17.53999901  54.64000320
C     6.25000000  18.17000008  53.34999847
C     7.26999998  18.29000092  52.43000031
C     8.52999973  17.71000099  52.69000244
C    12.56999969  16.88999939  53.68000031
C    13.27000046  17.04000092  52.41000366
C    14.65999985  16.84999847  52.29000092
C     4.82999992  18.54999924  52.94000244
H     4.50527811  17.92128372  52.11092377
H     9.40999985  18.38000107  50.86999893
H    10.39999962  16.39999962  55.31000137
H     7.88999987  16.75000000  55.97999954
H     5.60999966  17.52000046  55.37000275
H     6.98999977  18.71000099  51.46999741
H    15.06999969  17.23999977  51.36000061
H     4.13999987  18.30999947  53.75999832
H     4.79999971  19.62000084  52.70000076
S    15.84000015  15.73999977  55.93999863
C    18.46999931  15.39000034  55.13000107
C    17.19000053  15.78999996  54.82999802
C    16.77000046  16.29999924  53.54999924
C    17.71999931  16.53000069  52.61000061
C    19.06999969  16.06999969  52.77999878
C    20.10999870  16.13000107  51.77999878
C    21.35999870  15.54999924  52.02000046
C    21.60000038  14.81999969  53.25000000
C    20.68000031  14.92000008  54.22000122
C    19.40999985  15.47999954  54.08000183
C    15.34999943  16.42000008  53.47000122
C    14.70000076  16.31999969  54.66999817
C    13.31999969  16.53000069  54.78000259
C    22.98999977  14.32000065  53.68000031
H    23.31602287  14.77643299  54.61460114
H    18.68000031  14.86999989  56.06999969
H    17.52000046  17.01000023  51.65999985
H    19.76000023  16.36000061  50.77999878
H    22.17000008  15.72000027  51.31000137
H    20.82999992  14.37000084  55.15999603
H    12.81999969  16.15999985  55.66999817
H    23.67000198  14.60999966  52.87000275
H    22.98999977  13.22999954  53.82999802
