96

S    12.53999901  16.54000092  44.33000183
C     9.94000053  17.14999962  45.06000137
C    11.17000008  16.69000053  45.44000244
C    11.51999950  16.46000099  46.77000046
C    10.47000027  16.46000099  47.72999573
C     9.13000011  16.82999992  47.39999771
C     8.03999996  16.65999985  48.26000214
C     6.84000015  17.10000038  47.85999680
C     6.67000008  17.67000008  46.62000275
C     7.65999985  17.71000099  45.70999908
C     8.93000031  17.21999931  46.02000427
C    12.92000008  16.21999931  46.97000122
C    13.56999969  16.34000015  45.70000076
C    14.96999931  16.36000061  45.59000015
C     5.26999998  18.25000000  46.27999878
H     4.74668598  17.60646439  45.57281876
H     9.68999958  17.31999969  44.02000046
H    10.59999943  16.22999954  48.77999878
H     8.19000053  16.03000069  49.13000107
H     5.97000027  16.92000008  48.48999786
H     7.40000010  18.09999847  44.72999954
H    15.44999981  16.36999893  44.61000061
H     4.59000015  18.42000008  47.11999893
H     5.42999983  19.20999908  45.76000214
S    16.11999893  15.57000065  49.38000107
C    18.78999901  15.01999950  48.54000092
C    17.50000000  15.57999992  48.27000046
C    17.20000076  15.95000076  46.88999939
C    18.15999985  15.90999985  45.91999817
C    19.44000053  15.38000011  46.18999863
C    20.43999863  15.31999969  45.14999771
C    21.71999931  14.93000031  45.47000122
C    22.00000000  14.42000008  46.76000214
C    21.02000046  14.44000053  47.77999878
C    19.76000023  14.94999981  47.50000000
C    15.70000076  16.03999901  46.76000214
C    15.08999920  15.93999958  48.06000137
C    13.67000008  16.02000046  48.13000107
C    23.42000008  14.15999985  47.09999847
H    23.66133881  14.63536263  48.05072784
H    19.11999893  14.59000015  49.47999954
H    18.02999878  16.11999893  44.86000061
H    20.25000000  15.92000008  44.27000046
H    22.56999969  14.94999981  44.79999924
H    21.31999969  14.13000011  48.77999878
H    13.12000084  16.03000069  49.06999969
H    23.88000107  14.57999992  46.19999695
H    23.45999908  13.07000065  47.11000061
S    15.90999985  13.22999954  52.18000031
C    18.52000046  12.50000000  51.49000168
C    17.17000008  12.51999950  51.14999771
C    16.75000000  12.18000031  49.86999893
C    17.65999985  11.68000031  48.95999908
C    19.04000092  11.67000008  49.27999878
C    19.92000008  11.03999996  48.36000061
C    21.22999954  11.13999939  48.63999939
C    21.75000000  11.61999893  49.87999725
C    20.85000038  12.02000046  50.84000015
C    19.45000076  12.01000023  50.54999924
C    15.26999950  12.31999969  49.75000000
C    14.70000076  12.89000034  50.93999863
C    13.38999939  13.26000023  51.00000000
C    23.21000099  11.25000000  50.13000107
H    23.54446983  11.60628128  51.10431671
H    18.98999977  12.86999893  52.39999771
H    17.30999947  11.19999981  48.04999924
H    19.52000046  10.71000004  47.41000366
H    21.97000122  10.62000084  48.04000092
H    21.15999985  12.20999908  51.86000061
H    12.94999981  13.75000000  51.86000061
H    23.36999893  10.19999981  49.86999893
H    23.75000000  11.79999924  49.34999847
S    11.84999943  12.11999989  47.47000122
C     9.22000027  12.82999992  48.34000015
C    10.57999992  12.67000008  48.55999756
C    11.11999989  13.03999996  49.86000061
C    10.26000023  13.45999908  50.83000183
C     8.89000034  13.63000011  50.56000137
C     8.03999996  14.09000015  51.59999847
C     6.65999985  14.18000031  51.38999939
C     6.11999989  13.97999954  50.08999634
C     6.91999960  13.47000027  49.06000137
C     8.34999943  13.34000015  49.29000092
C    12.63000011  12.89999962  49.89999771
C    13.14000034  12.35000038  48.74000168
C    14.52000046  12.09000015  48.61000061
C     4.61999989  14.19999981  49.81999969
H     4.30873585  13.65528774  48.92864990
H     8.92000008  12.44999981  47.36999893
H    10.62000084  13.60000038  51.84000015
H     8.45000076  14.27999973  52.58999634
H     6.09000015  14.40000057  52.29000092
H     6.54999971  13.27999973  48.06000137
H    14.93999958  11.68000031  47.70000076
H     4.46000004  15.26999950  49.69999695
H     4.07000017  13.76000023  50.65999985
