96

S    12.23000050  17.11000061  44.06999969
C     9.67000008  17.63000107  44.81999969
C    10.86999989  17.10000038  45.08999634
C    11.14999962  16.60000038  46.44000244
C    10.24000072  16.64999962  47.48000336
C     9.00000000  17.25000000  47.15000153
C     8.02999973  17.22999954  48.20000076
C     6.77999973  17.61999893  47.88999939
C     6.38999987  18.04999924  46.59000015
C     7.30999994  18.15999985  45.58000183
C     8.69999981  17.72999954  45.80999756
C    12.56999969  16.40999985  46.62000275
C    13.30000019  16.68000031  45.43000031
C    14.67000008  16.72999954  45.28999710
C     5.03999996  18.32999992  46.25000000
H     4.67590284  17.74884415  45.40277481
H     9.42000008  18.12000084  43.88000107
H    10.32999992  16.13000107  48.43000031
H     8.18000031  16.72999954  49.15000153
H     6.05000019  17.56999969  48.68999863
H     7.00999975  18.45999908  44.58000183
H    15.10000038  17.11000061  44.36999893
H     4.46000004  18.20999908  47.16999817
H     5.13999987  19.37000084  45.93999863
S    15.90999985  15.88999939  48.96999741
C    18.48999977  15.26999950  48.11000061
C    17.23999977  15.85000038  47.84000015
C    16.87000084  16.26000023  46.51000214
C    17.82999992  16.27000046  45.61000061
C    19.17000008  15.73999977  45.83000183
C    20.17000008  15.65999985  44.82999802
C    21.42999840  15.11999989  45.11000061
C    21.65999985  14.55000019  46.40999603
C    20.69000053  14.47999954  47.32999802
C    19.42000008  15.15999985  47.11999893
C    15.43000031  16.31999969  46.39999771
C    14.73999977  16.06999969  47.60000229
C    13.35999966  16.15999985  47.74000168
C    23.02999878  14.23999977  46.86999893
H    23.37019157  14.85915089  47.70006943
H    18.71999931  15.11000061  49.15000153
H    17.72999954  16.61999893  44.59000015
H    19.88999939  15.98000050  43.82999802
H    22.27999878  15.18000031  44.43999863
H    20.73999786  13.93000031  48.27000046
H    12.81000042  16.00000000  48.66000366
H    23.59999847  14.57999992  46.00000000
H    23.12000084  13.17999935  47.11999893
S    12.15999985  17.25000000  50.90000153
C     9.48000050  17.97000122  51.70000076
C    10.76000023  17.47999954  51.95999908
C    11.05000019  17.02000046  53.27999878
C    10.00000000  16.95000076  54.23999786
C     8.64000034  17.27000046  53.95000076
C     7.55999994  17.20000076  54.84000397
C     6.30999994  17.68000031  54.55999756
C     6.10000038  18.20000076  53.26000214
C     7.11999989  18.38999939  52.31999969
C     8.43999958  17.89999962  52.63999939
C    12.43999958  16.76000023  53.43999863
C    13.17000008  16.84000015  52.19999695
C    14.56999969  16.76000023  52.09999847
C     4.63000011  18.54999924  52.84999847
H     4.19966173  17.93318176  52.06104660
H     9.28999996  18.30999947  50.68000031
H    10.24000072  16.45000076  55.18000031
H     7.76999998  16.88999939  55.86000061
H     5.46999979  17.40999985  55.18000031
H     6.86999989  18.86999893  51.37000275
H    15.01999950  16.93000031  51.12999725
H     4.00000000  18.40999985  53.74000168
H     4.55000019  19.60000038  52.56000137
S    15.53999996  15.69000053  55.79999924
C    18.12999916  15.13000011  55.08999634
C    16.93000031  15.62000084  54.73999786
C    16.72000122  16.14999962  53.44999695
C    17.79000092  16.28999901  52.57999802
C    19.07999992  15.84000015  52.90999985
C    20.20000076  15.77000046  52.04000092
C    21.40000153  15.19999981  52.38999939
C    21.54999924  14.68999958  53.70999908
C    20.43000031  14.61999989  54.50000000
C    19.19000053  15.22999954  54.18000031
C    15.26000023  16.44000053  53.27999878
C    14.52999973  16.20000076  54.47999954
C    13.14000034  16.36000061  54.56999969
C    22.88000107  14.26000023  54.22999954
H    23.25105286  14.90024948  55.03031158
H    18.31999969  14.55000019  55.98999786
H    17.61000061  16.52000046  51.52999878
H    20.13999939  16.31999969  51.11000061
H    22.23999977  15.18000031  51.70999908
H    20.55999947  14.11000061  55.45999908
H    12.64999962  16.39999962  55.52999878
H    23.45999908  14.40999985  53.30999756
H    22.98000145  13.20000076  54.47000122
