96

S    12.25999928  16.98999977  44.15000153
C     9.59999943  17.54999924  44.97000122
C    10.84000015  17.15999985  45.26000214
C    11.19999981  16.79999924  46.56000137
C    10.29000092  16.54999924  47.48000336
C     8.94999981  16.88999939  47.21000290
C     7.81000042  16.80999947  48.15000153
C     6.56000042  17.26000023  47.81000137
C     6.25000000  17.61000061  46.51000214
C     7.26999998  17.64000130  45.56999969
C     8.61999989  17.39999962  45.93999863
C    12.61999989  16.63999939  46.68000031
C    13.34000015  16.77999878  45.47000122
C    14.75999928  16.70999908  45.45000076
C     4.84000015  18.01000023  46.11999893
H     4.48245668  17.52582550  45.21124268
H     9.47000027  18.02000046  43.99000168
H    10.52000046  16.03999901  48.41999817
H     8.01000023  16.53000069  49.18000031
H     5.78999996  17.12000084  48.55999756
H     6.94999981  17.77000046  44.54000092
H    15.29999924  16.97000122  44.54999924
H     4.11000013  17.79000092  46.90999985
H     4.80999994  19.10000038  46.02000427
S    15.65000057  15.64000034  49.22000122
C    18.29000092  15.25000000  48.57999802
C    17.07999992  15.62999916  48.27000046
C    16.79000092  16.10999870  46.86999893
C    17.82999992  16.31000137  45.93000031
C    19.04000092  15.86999989  46.26999664
C    20.15999985  15.85999966  45.31000137
C    21.38999939  15.52000046  45.70000076
C    21.61000061  15.08999920  47.01000214
C    20.62000084  14.86999989  47.84999847
C    19.25000000  15.26999950  47.52999878
C    15.43000031  16.36999893  46.63999939
C    14.68000031  16.10000038  47.78999710
C    13.30999947  16.32999992  47.84000015
C    23.00000000  14.59000015  47.45999908
H    23.35247421  15.10792160  48.35197449
H    18.53000069  14.85999966  49.56999969
H    17.71999931  16.72999954  44.93000031
H    19.96000099  16.09000015  44.27000046
H    22.20000076  15.54999924  44.98000336
H    20.81999969  14.59000015  48.88000107
H    12.74000072  16.21999931  48.75000000
H    23.72999954  14.61999989  46.63000107
H    22.88000107  13.52000046  47.67000198
S    11.97999954  16.98999977  51.30000305
C     9.28999996  17.31999969  51.93999863
C    10.59000015  16.88999939  52.30999756
C    10.88999939  16.55999947  53.64999771
C     9.88000011  16.42000008  54.52999878
C     8.57999992  16.68000031  54.16999817
C     7.50999975  16.52000046  55.07999802
C     6.25000000  16.90999985  54.79999924
C     5.89999962  17.45000076  53.54000092
C     6.91999960  17.64999962  52.63999939
C     8.28999996  17.20000076  52.88000107
C    12.38000011  16.38000107  53.77999878
C    13.07000065  16.57999992  52.56999969
C    14.44000053  16.47999954  52.50000000
C     4.46000004  17.97999954  53.20999908
H     4.02862453  17.42640114  52.37600708
H     9.03999996  18.00000000  51.12999725
H    10.06999969  15.86999989  55.45000076
H     7.69999981  16.09000015  56.04999924
H     5.58000040  16.68000031  55.61999893
H     6.67000008  18.18000031  51.72000122
H    15.01000023  16.72999954  51.62000275
H     3.81000018  17.94000053  54.08000183
H     4.42999983  19.03000069  52.90999985
S    15.57000065  15.71000004  56.20999908
C    18.07999992  15.11999989  55.52000046
C    16.87000084  15.62000084  55.15999603
C    16.54000092  16.01000023  53.80000305
C    17.56999969  16.11999893  52.88000107
C    18.82999992  15.64000034  53.15999985
C    19.89999962  15.72999954  52.28000259
C    21.04999924  15.14000034  52.60000229
C    21.32999802  14.75999928  53.95999908
C    20.36000061  14.68000031  54.88999939
C    19.06999969  15.14000034  54.51000214
C    15.13000011  16.31000137  53.62999725
C    14.46000004  16.07999992  54.89999771
C    13.09999943  16.05999947  54.93999863
C    22.78000069  14.34000015  54.33000183
H    23.23043060  14.95230389  55.11121750
H    18.35000038  14.63000107  56.45999908
H    17.32999992  16.42000008  51.86000061
H    19.79999924  16.17000008  51.29000092
H    21.73000145  15.06999969  51.75000000
H    20.43999863  14.22000027  55.86999893
H    12.65999985  15.93000031  55.91999817
H    23.38000107  14.34999943  53.40999985
H    22.70999908  13.30999947  54.68000031
