96

S    12.23999977  17.23999977  44.15000153
C     9.57999992  17.50000000  44.78000259
C    10.77000046  17.05999947  45.18000031
C    11.10999966  16.53000069  46.46999741
C    10.00000000  16.40999985  47.36000061
C     8.75000000  16.87000084  47.01000214
C     7.67000008  16.87000084  47.97999954
C     6.51999998  17.50000000  47.74000168
C     6.23000050  17.94999886  46.45000076
C     7.23000002  18.02999878  45.45999908
C     8.51000023  17.52000046  45.76000214
C    12.55000019  16.45000076  46.66999817
C    13.25000000  16.72000122  45.48999786
C    14.65999985  16.81999969  45.41999817
C     4.86999989  18.23999977  46.12999725
H     4.52159834  17.60590935  45.31473923
H     9.42000008  17.89999962  43.77999878
H    10.14000034  16.22999954  48.41999817
H     7.90000010  16.38000107  48.93000031
H     5.68000031  17.46999931  48.43000031
H     6.96000004  18.38000107  44.45999908
H    15.08999920  16.87999916  44.41999817
H     4.23999977  18.00000000  47.00000000
H     4.56999969  19.27000046  45.93000031
S    15.72999954  15.90999985  49.15999985
C    18.31999969  15.19000053  48.34000015
C    17.11000061  15.84000015  48.09999847
C    16.77000046  16.31000137  46.79999924
C    17.79999924  16.31999969  45.90999985
C    19.04999924  15.81999969  46.12999725
C    20.17000008  15.95000076  45.18000031
C    21.42999840  15.47999954  45.52000046
C    21.70000076  14.85999966  46.77000046
C    20.69999886  14.70000076  47.68000031
C    19.38999939  15.26999950  47.43000031
C    15.36000061  16.53000069  46.62000275
C    14.63000107  16.22999954  47.81000137
C    13.22999954  16.21999931  47.84999847
C    23.18000031  14.63999939  47.11999893
H    23.51828575  15.20141029  47.99090576
H    18.45000076  14.65000057  49.27999878
H    17.67000008  16.90999985  45.00000000
H    20.17000008  16.46999931  44.22999954
H    22.26000023  15.46000004  44.81999969
H    20.86999893  14.27999973  48.66000366
H    12.68000031  15.90000057  48.74000168
H    23.80000114  15.00000000  46.29000092
H    23.34000015  13.55999947  47.21000290
S    15.62999916  12.97999954  52.32999802
C    18.35000038  12.53999901  51.55000305
C    17.01000023  12.56000042  51.25000000
C    16.54000092  12.22000027  49.94999695
C    17.36999893  11.72000027  49.03999710
C    18.76000023  11.68000031  49.22999954
C    19.63999939  11.13000011  48.20000076
C    20.98999977  11.00000000  48.50999832
C    21.44000053  11.51999950  49.75999832
C    20.59000015  12.01000023  50.72000122
C    19.22000122  12.00000000  50.52000046
C    15.08999920  12.39999962  49.79999924
C    14.52000046  12.93000031  50.97000122
C    13.15999985  13.35000038  50.96000290
C    22.93999863  11.39999962  50.07999802
H    23.21567917  11.85704803  51.03036880
H    18.77000046  13.07000065  52.39999771
H    16.95999908  11.31000042  48.11999893
H    19.19999886  10.82999992  47.25999832
H    21.61000061  10.65999985  47.69000244
H    20.79999924  12.38999939  51.72000122
H    12.74000072  13.81999969  51.84999847
H    23.05000114  10.31999969  49.93000031
H    23.50000000  11.90999985  49.27999878
S    11.71000004  12.32999992  47.43000031
C     9.07999992  13.14000034  48.11999893
C    10.43000031  13.12999916  48.40999985
C    10.95000076  13.50000000  49.71000290
C    10.03999901  13.90999985  50.65999985
C     8.67999935  13.99000072  50.41999817
C     7.64999962  14.34999943  51.32999802
C     6.30000019  14.37000084  51.03000259
C     5.86999989  14.09999943  49.66999817
C     6.78999996  13.68999958  48.68999863
C     8.14999962  13.60999966  49.09000015
C    12.36999989  13.20000076  49.85000229
C    12.97000027  12.56999969  48.67000198
C    14.26000023  12.10999966  48.67000198
C     4.44999981  14.39000034  49.18000031
H     4.21116209  13.96852112  48.20357132
H     8.69000053  12.89999962  47.14000320
H    10.46000004  14.29999924  51.59000015
H     7.95000029  14.70999908  52.30999756
H     5.47999954  14.52999973  51.72000122
H     6.58999968  13.40999985  47.65999603
H    14.48999977  11.39999962  47.87000275
H     4.21000004  15.46000004  49.15999985
H     3.74000025  13.99000072  49.92000198
