96

S    12.13999939  17.07999992  44.34000015
C     9.59000015  17.54999924  44.99000168
C    10.78999996  17.02999878  45.35999680
C    11.06999969  16.53000069  46.65000153
C    10.08999920  16.56999969  47.57999802
C     8.78999996  17.05000114  47.31999969
C     7.68000031  16.80999947  48.22000122
C     6.44000006  17.23999977  47.75000000
C     6.23000050  17.71999931  46.47999573
C     7.22000027  17.87999916  45.61999893
C     8.52999973  17.48999977  45.96000290
C    12.51999950  16.20000076  46.79000092
C    13.20000076  16.54000092  45.63999939
C    14.53999996  16.54999924  45.63000107
C     4.78999996  17.93000031  46.11000061
H     4.39080667  17.37398148  45.26171494
H     9.52999973  17.87999916  43.95999908
H    10.14999962  16.02000046  48.52000427
H     7.79999971  16.27000046  49.15000153
H     5.59999990  17.02999878  48.40999985
H     7.03999996  18.15999985  44.59000015
H    15.06999969  16.80999947  44.72000122
H     4.11999989  17.68000031  46.95000076
H     4.65999985  19.02000046  46.04000092
S    15.70000076  15.36000061  49.23999786
C    18.32999992  14.89999962  48.48999786
C    17.12000084  15.44000053  48.15999985
C    16.77000046  16.02000046  46.90000153
C    17.73999977  15.95999908  45.97999954
C    19.02000046  15.57000065  46.23000336
C    20.03999901  15.69000053  45.20999908
C    21.28000069  15.18000031  45.41999817
C    21.57999992  14.48999977  46.69000244
C    20.55999947  14.40000057  47.67000198
C    19.29999924  15.01000023  47.49000168
C    15.32999992  16.22999954  46.77999878
C    14.61999989  15.80000019  47.95000076
C    13.23999977  15.70000076  47.90000153
C    23.01000214  14.21000004  47.15999985
H    23.38645935  14.83506203  47.96973801
H    18.57999992  14.40000057  49.41999817
H    17.47999954  16.28999901  44.98000336
H    19.78999901  16.15999985  44.26000214
H    21.94999886  15.29999924  44.56999969
H    20.72000122  14.06000042  48.68999863
H    12.64000034  15.44999981  48.76999664
H    23.74000168  14.18000031  46.35000229
H    23.02000046  13.20000076  47.56999969
S    11.79999924  17.09000015  50.81999969
C     9.22999954  17.61000061  51.60999680
C    10.48999977  17.18000031  51.90999985
C    10.82999992  16.75000000  53.18999863
C     9.82999992  16.62999916  54.15999985
C     8.48999977  16.95999908  53.86000061
C     7.42999983  16.79000092  54.77000427
C     6.15000010  17.36999893  54.54999924
C     5.86000013  17.88999939  53.27999878
C     6.80999994  18.01000023  52.25000000
C     8.19000053  17.61000061  52.57999802
C    12.30999947  16.63999939  53.37999725
C    13.01000023  16.75000000  52.15999985
C    14.40000057  16.62999916  52.04000092
C     4.42999983  18.37000084  53.02000046
H     4.02383709  17.95645142  52.09690094
H     8.96000004  17.94000053  50.61000061
H    10.10000038  16.39000130  55.19000244
H     7.71000004  16.39999962  55.73999786
H     5.47999954  17.31999969  55.40000153
H     6.56000042  18.43000031  51.27999878
H    14.98000050  16.72999954  51.11999893
H     3.75000000  18.15000153  53.85000229
H     4.53999996  19.44000053  52.83000183
S    15.60999966  15.77000046  55.72000122
C    18.17000008  15.34999943  54.91000366
C    16.90999985  15.67999935  54.55999756
C    16.54999924  16.06999969  53.23999786
C    17.51000023  16.17000008  52.25999832
C    18.85000038  15.95000076  52.63000107
C    19.85000038  16.28000069  51.69000244
C    21.12999916  16.10000038  52.09999847
C    21.53000069  15.42000008  53.31999969
C    20.58000183  15.26999950  54.22000122
C    19.22000122  15.59000015  53.95000076
C    15.06999969  16.28000069  53.23999786
C    14.42000008  16.17000008  54.48999786
C    13.04999924  16.43000031  54.59000015
C    22.88000107  14.93000031  53.55999756
H    23.24223328  15.38975811  54.47951508
H    18.48999977  14.96999931  55.86999893
H    17.35999870  16.44000053  51.22000122
H    19.52000046  16.75000000  50.77000046
H    21.91999817  16.32999992  51.38000107
H    20.85000038  14.80999947  55.17000198
H    12.61000061  16.25000000  55.56999969
H    23.61000061  15.11000061  52.76000214
H    22.88000107  13.83999920  53.57999802
