96

S    11.97000027  16.77000046  43.93000031
C     9.38000011  17.38000107  44.86000061
C    10.62999916  16.84000015  45.07999802
C    10.98999977  16.31999969  46.38000107
C     9.98000050  16.18999863  47.31999969
C     8.69999981  16.82999992  47.09999847
C     7.63999987  16.68000031  48.02000046
C     6.38000011  17.22999954  47.74000168
C     6.14000034  18.00000000  46.52000046
C     7.17000008  18.00000000  45.61000061
C     8.42000008  17.40999985  45.89000320
C    12.36999989  15.98999977  46.38000107
C    13.10999966  16.28999901  45.20000076
C    14.52999973  16.28000069  45.11000061
C     4.67999983  18.45000076  46.11999893
H     4.39455080  17.75778580  45.32787704
H     9.17000008  17.84000015  43.89999771
H    10.19999981  15.73999977  48.29000092
H     7.85000038  16.07999992  48.89999771
H     5.47999954  17.01000023  48.30999756
H     6.90000010  18.30000114  44.59999847
H    15.11000061  16.63999939  44.26000214
H     4.05999994  18.45000076  47.02000046
H     4.69000006  19.48999977  45.76000214
S    15.39000034  15.47000027  48.96999741
C    18.15999985  15.32999992  48.41999817
C    16.88999939  15.64000034  47.97000122
C    16.62999916  15.81999969  46.60999680
C    17.64999962  15.90999985  45.68999863
C    19.00000000  15.60999966  46.09000397
C    20.03000069  15.51000023  45.18000031
C    21.31999969  15.19999981  45.59000015
C    21.63000107  14.81999969  46.95000076
C    20.56999969  14.92000008  47.85999680
C    19.23999977  15.22999954  47.47000122
C    15.18000031  15.90999985  46.31999969
C    14.40000057  15.67999935  47.48000336
C    13.04999924  15.72000027  47.56000137
C    23.03999901  14.35999966  47.27000427
H    23.43204498  14.94462776  48.10223770
H    18.30999947  14.96000099  49.43000031
H    17.30999947  16.07999992  44.66999817
H    19.96000099  15.82999992  44.13999939
H    22.09000015  15.13000011  44.81999969
H    20.76999855  14.78000069  48.92000198
H    12.43000031  15.65000057  48.44999695
H    23.57999992  14.55999947  46.33999634
H    23.03999901  13.26000023  47.35000229
S    15.88999939  13.32999992  52.22999954
C    18.60000038  12.71999931  51.50000000
C    17.26000023  12.71000004  51.27999878
C    16.77999878  12.18000031  50.07999802
C    17.69000053  11.72999954  49.15000153
C    19.04000092  11.71000004  49.41999817
C    19.97999954  11.28000069  48.44999695
C    21.34000015  11.35000038  48.68000031
C    21.84999847  11.61000061  49.97000122
C    20.96999931  12.10000038  50.97000122
C    19.59000015  12.28999996  50.65000153
C    15.34000015  12.30999947  49.86000061
C    14.73000050  12.84000015  50.98999786
C    13.42000008  13.12000084  51.02000427
C    23.22999954  11.09000015  50.37000275
H    23.58889961  11.46270370  51.32936859
H    18.92000008  12.76000023  52.54000092
H    17.28999901  11.28000069  48.23999786
H    19.70000076  10.88000107  47.48000336
H    22.09000015  10.95999908  48.00000000
H    21.21999931  12.28000069  52.01000214
H    12.97000027  13.59000015  51.88000107
H    23.31000137   9.98999977  50.41999817
H    24.00000000  11.33999920  49.61999893
S    12.15000057  12.20000076  47.43000031
C     9.44999981  12.97000027  48.13999939
C    10.84000015  12.90999985  48.43999863
C    11.28000069  13.35000038  49.69999695
C    10.40999985  13.67000008  50.77000046
C     9.02999973  13.75000000  50.50000000
C     8.02999973  14.06999969  51.49000168
C     6.70000029  14.13000011  51.18999863
C     6.30000019  13.94000053  49.85000229
C     7.13000011  13.38999939  48.88000107
C     8.56000042  13.40999985  49.16999817
C    12.69000053  13.09000015  49.81999969
C    13.30999947  12.48000050  48.73000336
C    14.63999939  12.05999947  48.72000122
C     4.82999992  14.13000011  49.45999908
H     4.53437042  13.49325943  48.62617493
H     9.07999992  12.58999920  47.18999863
H    10.69000053  13.60999966  51.81000137
H     8.36999989  14.04000092  52.51999664
H     5.91000032  14.15999985  51.93000031
H     6.76000023  13.02000046  47.93000031
H    15.01999950  11.44999981  47.90000153
H     4.80999994  15.15999985  49.08000183
H     4.25000000  14.06999969  50.38999939
