96

S    12.28000069  17.17000008  43.99000168
C     9.63000011  17.64000130  44.71000290
C    10.93999958  17.38999939  45.10000229
C    11.26999950  16.72999954  46.32999802
C    10.31999969  16.52000046  47.27000427
C     9.06999969  17.05999947  47.04999924
C     8.00000000  16.77999878  47.93000031
C     6.76000023  17.04000092  47.55000305
C     6.44000006  17.61999893  46.30000305
C     7.37999964  17.90999985  45.43000031
C     8.67000008  17.52000046  45.72000122
C    12.69999981  16.46000099  46.46999741
C    13.43999958  16.72999954  45.27999878
C    14.85000038  16.64999962  45.27000046
C     5.03999996  17.94000053  45.93000031
H     4.59042788  17.21114922  45.25564194
H     9.32999992  17.98999977  43.73000336
H    10.48999977  15.90000057  48.13999939
H     8.31999969  16.36000061  48.88000107
H     5.97000027  17.01000023  48.29000092
H     7.18999958  18.31999969  44.43999863
H    15.34999943  16.56999969  44.29999924
H     4.35999966  17.88999939  46.79000092
H     4.85000038  18.96000099  45.56999969
S    15.85999966  15.64000034  48.88999939
C    18.50000000  15.15999985  48.09999847
C    17.25000000  15.62999916  47.80000305
C    16.93000031  16.13000107  46.52000046
C    17.94999886  16.11999893  45.54999924
C    19.26000023  15.65000057  45.79000092
C    20.31999969  15.71000004  44.79000092
C    21.55999947  15.26999950  45.07999802
C    21.84000015  14.85000038  46.45000076
C    20.81999969  14.63999939  47.38999939
C    19.52999878  15.11999989  47.09000015
C    15.57999992  16.46000099  46.42000198
C    14.84000015  16.22999954  47.61000061
C    13.43999958  16.21000099  47.68000031
C    23.31000137  14.63999939  46.84000015
H    23.49225426  14.95347786  47.86791611
H    18.75000000  14.67000008  49.03999710
H    17.79000092  16.45000076  44.52000046
H    20.06000137  16.03000069  43.77999878
H    22.36999893  15.11999989  44.36999893
H    21.02999878  14.27000046  48.39000320
H    12.97000027  15.93000031  48.61999893
H    24.00000000  15.19999981  46.19999695
H    23.55999947  13.60999966  46.58000183
S    12.07999992  17.11000061  50.97000122
C     9.34000015  17.28999901  51.62000275
C    10.60999966  17.00000000  51.98999786
C    10.86999989  16.59000015  53.27000046
C     9.94000053  16.54999924  54.33000183
C     8.64000034  16.80999947  53.92000198
C     7.55000019  16.84999847  54.91000366
C     6.34000015  17.39999962  54.51000214
C     6.03999996  17.67000008  53.11999893
C     6.98000002  17.57999992  52.18000031
C     8.28999996  17.17000008  52.51999664
C    12.25000000  16.48999977  53.46000290
C    13.09000015  16.73999977  52.34000397
C    14.46000004  16.57999992  52.29000092
C     4.71000004  18.12999916  52.72999573
H     4.29682064  17.54174423  51.91064453
H     9.15999985  17.75000000  50.65999985
H    10.21999931  16.31000137  55.34999847
H     7.75000000  16.59000015  55.93999863
H     5.61999989  17.56999969  55.30000305
H     6.83000040  18.11000061  51.24000168
H    14.96000099  16.53000069  51.31999969
H     4.03999996  18.12999916  53.59000397
H     4.71000004  19.14999962  52.31999969
S    15.36999893  15.57000065  55.97999954
C    18.02000046  15.11999989  55.44000244
C    16.84999847  15.65999985  55.01999664
C    16.62999916  16.11999893  53.68000031
C    17.63000107  16.10999870  52.75000000
C    18.88000107  15.57999992  53.09000015
C    19.89999962  15.36000061  52.11000061
C    21.11999893  14.78000069  52.43999863
C    21.37000084  14.48999977  53.80000305
C    20.31999969  14.48999977  54.73999786
C    19.03000069  15.11000061  54.43999863
C    15.18000031  16.25000000  53.41999817
C    14.37999916  16.02000046  54.61000061
C    13.00000000  16.15999985  54.61999893
C    22.77000046  14.09999943  54.20000076
H    23.09742355  14.61659813  55.10223007
H    18.20000076  14.75999928  56.45000076
H    17.39999962  16.42000008  51.72999954
H    19.61000061  15.51000023  51.06999969
H    21.86000061  14.65000057  51.65999985
H    20.68000031  14.32000065  55.76000214
H    12.42000008  16.03999901  55.52999878
H    23.51000023  14.30999947  53.40999985
H    22.72000122  13.01000023  54.27000046
