96

S    12.28999996  17.22999954  44.08000183
C     9.67000008  17.76000023  44.99000168
C    10.90000057  17.18000031  45.18000031
C    11.21999931  16.62999916  46.44000244
C    10.25000000  16.54000092  47.44999695
C     8.92000008  16.95999908  47.21000290
C     7.88999987  16.93000031  48.13000107
C     6.67000008  17.52000046  47.77999878
C     6.40999985  17.93000031  46.40999603
C     7.42000008  18.06999969  45.52000046
C     8.65999985  17.60000038  45.90000153
C    12.68000031  16.59000015  46.62000275
C    13.35999966  16.79000092  45.40999985
C    14.75000000  16.64999962  45.27999878
C     4.92000008  18.25000000  46.04999924
H     4.61117268  18.11274338  45.01371384
H     9.43000031  18.20999908  44.02999878
H    10.53999996  16.13000107  48.40999985
H     8.09000015  16.60000038  49.15000153
H     5.92999983  17.63000107  48.56999969
H     7.18999958  18.45000076  44.52999878
H    15.21999931  16.75000000  44.31000137
H     4.23999977  17.72999954  46.72999954
H     4.79999971  19.30999947  46.31999969
S    15.86999989  15.84000015  48.95000076
C    18.32999992  15.24000072  48.34999847
C    17.21999931  15.70000076  47.91999817
C    16.94000053  16.25000000  46.63000107
C    17.98999977  16.20000076  45.73999786
C    19.18000031  15.57999992  46.10000229
C    20.20999908  15.53999996  45.06000137
C    21.45999908  15.11000061  45.35999680
C    21.73999977  14.72000027  46.70000076
C    20.76999855  14.70000076  47.65999603
C    19.40000153  15.14000034  47.37999725
C    15.52999973  16.46000099  46.44000244
C    14.82999992  16.38000107  47.63999939
C    13.45000076  16.44000053  47.76000214
C    23.09000015  14.22999954  47.14000320
H    23.34754372  14.59195328  48.13537216
H    18.54999924  14.81999969  49.33000183
H    17.90999985  16.59000015  44.72999954
H    19.92000008  15.88000107  44.06999969
H    22.20000076  15.00000000  44.56999969
H    21.02000046  14.37999916  48.67000198
H    12.92000008  16.28000069  48.68999863
H    23.78999901  14.60000038  46.38000107
H    23.06999969  13.12999916  47.06999969
S    11.94000053  17.14999962  50.98999786
C     9.27999973  17.57999992  51.52999878
C    10.52999973  17.19000053  51.97999954
C    10.76000023  16.77999878  53.33000183
C     9.68999958  16.56999969  54.22999954
C     8.39999962  17.02999878  53.79000092
C     7.25000000  16.88999939  54.61000061
C     6.02999973  17.20999908  54.12000275
C     5.88000011  17.80999947  52.87000275
C     6.90000010  17.88999939  51.97000122
C     8.19000053  17.54999924  52.39999771
C    12.15999985  16.40999985  53.50999832
C    12.92000008  16.84000015  52.38999939
C    14.35999966  16.88999939  52.31999969
C     4.46999979  18.25000000  52.50000000
H     4.00737143  17.57708549  51.77801514
H     9.18000031  18.02000046  50.54000092
H     9.73999977  16.03000069  55.17000198
H     7.27999973  16.36999893  55.56000137
H     5.14999962  17.07999992  54.75000000
H     6.78999996  18.17000008  50.93000031
H    14.88999939  17.30999947  51.47999573
H     3.91999984  18.30999947  53.44999695
H     4.44999981  19.26000023  52.06999969
S    15.38000011  15.72999954  55.94999695
C    17.97000122  15.14000034  55.25000000
C    16.77000046  15.75000000  54.93999863
C    16.44000053  16.18999863  53.61000061
C    17.52000046  16.28000069  52.72999573
C    18.81999969  15.85999966  53.08000183
C    19.88999939  15.80000019  52.11000061
C    21.11999893  15.29000092  52.49000168
C    21.31000137  14.78000069  53.79000092
C    20.26000023  14.70999908  54.66999817
C    19.02000046  15.31999969  54.38000107
C    15.00000000  16.39999962  53.43000031
C    14.27000046  16.05999947  54.61000061
C    12.86000061  16.05999947  54.68000031
C    22.72000122  14.28999996  54.18000031
H    23.19702148  14.88266182  54.96057892
H    17.93000031  14.57999992  56.18000031
H    17.21999931  16.46999931  51.70000076
H    19.70000076  16.04999924  51.06999969
H    21.90999985  15.19000053  51.75000000
H    20.38000107  14.01000023  55.48999786
H    12.27000046  16.03999901  55.58000183
H    23.31000137  14.26000023  53.25000000
H    22.56999969  13.26000023  54.54000092
