96

S    12.15000057  17.15999985  44.27999878
C     9.48999977  17.39999962  45.14999771
C    10.76000023  17.04000092  45.37000275
C    11.18999958  16.50000000  46.66999817
C    10.18000031  16.27000046  47.61000061
C     8.78999996  16.65999985  47.38999939
C     7.71000004  16.61999893  48.37999725
C     6.38000011  16.92000008  48.06999969
C     6.09000015  17.35999870  46.70999908
C     7.07999992  17.56000137  45.80999756
C     8.42000008  17.22999954  46.07999802
C    12.61999989  16.34000015  46.72000122
C    13.30999947  16.68000031  45.56999969
C    14.70000076  16.54999924  45.45999908
C     4.63999987  17.69000053  46.36000061
H     4.39673185  17.23208427  45.40123367
H     9.27999973  17.86000061  44.19000244
H    10.36000061  15.88000107  48.60000229
H     7.86000013  16.13000107  49.34000015
H     5.63000011  16.87000084  48.85000229
H     6.89000034  18.02999878  44.85000229
H    15.21999931  16.77999878  44.54000092
H     3.94000006  17.43999863  47.15999985
H     4.53999996  18.77000046  46.18999863
S    15.75000000  15.32999992  49.06000137
C    18.27000046  14.68999958  48.37999725
C    17.07999992  15.22999954  48.02999878
C    16.79999924  15.72000027  46.72000122
C    17.81999969  15.76000023  45.76000214
C    19.09000015  15.22999954  46.06999969
C    20.15999985  15.44999981  45.17000198
C    21.45999908  15.15999985  45.59999847
C    21.73999977  14.67000008  46.90999985
C    20.66999817  14.37000084  47.76000214
C    19.30999947  14.65000057  47.41000366
C    15.39999962  16.06999969  46.59000015
C    14.70000076  15.84000015  47.77999878
C    13.28999996  15.81999969  47.84999847
C    23.21000099  14.32000065  47.30999756
H    23.53307533  14.83270359  48.21601105
H    18.38999939  14.29999924  49.38999939
H    17.65999985  16.09000015  44.72999954
H    19.96999931  15.95000076  44.22999954
H    22.11999893  15.32999992  44.75999832
H    20.88000107  14.02999973  48.76999664
H    12.76000023  15.42000008  48.70999908
H    23.88000107  14.50000000  46.45999908
H    23.22000122  13.22999954  47.45999908
S    15.78999996  13.09999943  52.28000259
C    18.34000015  12.38999939  51.68000031
C    17.05999947  12.41000080  51.26999664
C    16.54000092  12.02999973  50.00999832
C    17.46000099  11.54000092  49.09000015
C    18.81000137  11.49000072  49.41999817
C    19.67000008  10.95999908  48.41999817
C    21.02999878  11.06999969  48.66000366
C    21.61000061  11.59000015  49.89999771
C    20.69000053  12.00000000  50.81999969
C    19.27999878  12.02000046  50.65000153
C    15.11000061  12.18999958  49.86999893
C    14.55999947  12.84000015  51.00000000
C    13.22999954  13.19000053  51.12999725
C    23.03999901  11.35000038  50.19000244
H    23.42989349  11.60520363  51.17537308
H    18.61999893  12.64999962  52.70000076
H    17.11000061  11.14999962  48.13999939
H    19.22999954  10.78999996  47.43999863
H    21.73999977  10.67999935  47.93000031
H    21.11999893  12.27000046  51.77999878
H    12.77999973  13.35999966  52.09999847
H    23.22000122  10.26999950  50.24000168
H    23.72999954  11.69000053  49.40000153
S    11.77999973  12.38999939  47.57999802
C     9.06999969  12.97999954  48.30999756
C    10.42000008  12.90999985  48.57999802
C    10.95000076  13.25000000  49.87999725
C    10.08999920  13.68000031  50.90000153
C     8.65999985  13.73000050  50.63999939
C     7.69999981  14.18000031  51.55000305
C     6.35999966  14.34000015  51.22000122
C     5.88000011  13.85000038  49.99000168
C     6.74000025  13.34000015  49.03999710
C     8.13000011  13.34000015  49.31000137
C    12.41000080  13.07999992  49.99000168
C    12.97000027  12.51999950  48.88000107
C    14.29999924  12.01000023  48.79000092
C     4.38000011  14.13000011  49.59000015
H     4.16335297  13.75261497  48.59062958
H     8.67999935  12.56999969  47.37999725
H    10.54999924  14.04000092  51.81999969
H     8.15999985  14.53999996  52.47000122
H     5.75000000  14.85999966  51.93999863
H     6.52999973  13.02000046  48.02000046
H    14.68000031  11.75000000  47.81000137
H     4.36999989  15.22999954  49.66999817
H     3.68999982  13.78000069  50.35999680
