96

S    11.92999935  16.61999893  43.83999634
C     9.31999969  17.22999954  44.78000259
C    10.65000057  16.92000008  45.06000137
C    11.10000038  16.61999893  46.40999603
C    10.14000034  16.53000069  47.43000031
C     8.73999977  16.75000000  47.11000061
C     7.73999977  16.62999916  48.08000183
C     6.46000004  17.01000023  47.78999710
C     6.11000013  17.53000069  46.45000076
C     7.05999947  17.63000107  45.50000000
C     8.34999943  17.19000053  45.76000214
C    12.55000019  16.51000023  46.43000031
C    13.17000008  16.38000107  45.15999603
C    14.60999966  16.32999992  45.02999878
C     4.65999985  17.97000122  46.10000229
H     4.36925983  17.53743362  45.14268494
H     9.19000053  17.61999893  43.76999664
H    10.47000027  16.40999985  48.44999695
H     7.96999979  16.14999962  49.02999878
H     5.63000011  16.87000084  48.47999954
H     6.88000011  18.00000000  44.48999786
H    14.98000050  16.29999924  44.01000214
H     4.01999998  17.56000137  46.88999939
H     4.69000006  19.06999969  46.00999832
S    15.80000019  15.69000053  48.74000168
C    18.43000031  15.26999950  48.01000214
C    17.14999962  15.52000046  47.62000275
C    16.79999924  15.95000076  46.30000305
C    17.78000069  16.07999992  45.33000183
C    19.05999947  15.53999996  45.63000107
C    20.10999870  15.57999992  44.72000122
C    21.42000008  15.29999924  45.00999832
C    21.71999931  14.80999947  46.30000305
C    20.69999886  14.72000027  47.22000122
C    19.38999939  15.07999992  46.97000122
C    15.39000034  16.27000046  46.18999863
C    14.77000046  16.20000076  47.41000366
C    13.38999939  16.36000061  47.48000336
C    23.15999985  14.47000027  46.70999908
H    23.39557838  14.80654144  47.71962357
H    18.68999863  15.01999950  49.02999878
H    17.57999992  16.63999939  44.43000031
H    19.89999962  15.88999939  43.69999695
H    22.13999939  15.50000000  44.22000122
H    20.89999962  14.46000004  48.26000214
H    13.02000046  16.36000061  48.50000000
H    23.80000114  14.84000015  45.90999985
H    23.26000023  13.38000107  46.77000046
S    15.92000008  13.40999985  52.01000214
C    18.64999962  12.77999973  51.40999603
C    17.27000046  12.79999924  51.00999832
C    16.79000092  12.39999962  49.75999832
C    17.64999962  11.82999992  48.87000275
C    19.04000092  11.73999977  49.15999985
C    20.03999901  11.16000080  48.22000122
C    21.35999870  10.98999977  48.67000198
C    21.77000046  11.39000034  49.98000336
C    20.93000031  11.97000027  50.84999847
C    19.55000114  12.18999958  50.47000122
C    15.34999943  12.50000000  49.55999756
C    14.72000027  13.02999973  50.72999954
C    13.38999939  13.52000046  50.79000092
C    23.29000092  11.07999992  50.34999847
H    23.48254585  11.25191498  51.40899277
H    19.01000023  13.20000076  52.35000229
H    17.22999954  11.56000042  47.90000153
H    19.67000008  10.81999969  47.25999832
H    22.11999893  10.62000084  47.98999786
H    21.19999886  12.25999928  51.86000061
H    12.92000008  13.97999954  51.65000153
H    23.50000000  10.05000019  50.05000305
H    23.95000076  11.73999977  49.77000427
S    12.01000023  12.20999908  47.22999954
C     9.32999992  12.81000042  48.01000214
C    10.67000008  13.00000000  48.22000122
C    11.19999981  13.64999962  49.38000107
C    10.27999973  14.09000015  50.33000183
C     8.86999989  13.85000038  50.17000198
C     7.90999985  14.26000023  51.17000198
C     6.57999992  14.35999966  50.83000183
C     6.10000038  13.76999950  49.62999725
C     6.98999977  13.20000076  48.77999878
C     8.39999962  13.21000004  48.99000168
C    12.63000011  13.36999989  49.61000061
C    13.23999977  12.60000038  48.47999954
C    14.57999992  12.30999947  48.43999863
C     4.63999987  13.96000004  49.27999878
H     4.48862934  13.85187912  48.20598984
H     8.96000004  12.28000069  47.12999725
H    10.59999943  14.32000065  51.33999634
H     8.25000000  14.75000000  52.08000183
H     5.95000029  15.03999901  51.39999771
H     6.81999969  12.93000031  47.74000168
H    15.05000019  12.05000019  47.50000000
H     4.34999990  14.93999958  49.66999817
H     3.95000005  13.28999996  49.80999756
