96

S    12.35000038  16.72000122  44.20999908
C     9.67000008  17.07999992  45.00999832
C    10.95999908  16.63999939  45.31000137
C    11.36999989  16.20000076  46.58000183
C    10.39000034  16.10000038  47.54000092
C     9.04999924  16.53000069  47.29000092
C     8.01999950  16.54999924  48.29000092
C     6.78999996  16.88999939  48.00000000
C     6.39999962  17.40999985  46.70000076
C     7.42000008  17.67000008  45.83000183
C     8.71000004  17.07999992  46.03000259
C    12.76999950  16.13000107  46.72000122
C    13.50000000  16.31999969  45.54999924
C    14.88999939  16.18000031  45.47000122
C     4.94999981  17.77000046  46.40999603
H     4.69833088  17.23070908  45.49679947
H     9.44000053  17.47999954  44.02000046
H    10.57999992  15.67999935  48.53000259
H     8.34999943  16.18999863  49.27000046
H     5.95000029  16.65999985  48.64999771
H     7.22000027  18.17000008  44.87999725
H    15.50000000  16.32999992  44.58000183
H     4.28999996  17.61999893  47.28000259
H     4.79999971  18.85000038  46.23000336
S    16.06999969  15.51000023  49.15999985
C    18.65999985  14.92000008  48.34000015
C    17.39999962  15.31999969  47.94000244
C    17.02999878  15.67000008  46.59999847
C    18.02999878  15.78999996  45.63000107
C    19.37000084  15.44999981  45.97999954
C    20.48000145  15.47000027  45.10000229
C    21.70999908  15.00000000  45.40000153
C    21.97999954  14.80000019  46.81999969
C    21.02000046  14.84000015  47.80000305
C    19.67000008  15.07999992  47.36999893
C    15.57999992  15.93000031  46.63999939
C    14.88999939  15.85000038  47.84000015
C    13.50999928  15.90999985  47.90999985
C    23.43000031  14.45000076  47.18000031
H    23.66563606  14.74990177  48.20109558
H    19.00000000  14.68999958  49.34999847
H    17.70000076  16.14999962  44.65999985
H    20.36000061  15.76000023  44.06000137
H    22.55000114  15.00000000  44.71000290
H    21.27000046  14.63000107  48.83999634
H    12.93000031  15.88000107  48.82999802
H    24.04999924  15.01000023  46.46999741
H    23.61000061  13.38999939  46.95999908
S    11.87000084  17.27000046  51.00999832
C     9.13999939  17.67000008  51.76000214
C    10.40999985  17.28999901  52.09000015
C    10.80000019  16.84999847  53.43999863
C     9.80000019  16.87999916  54.45000076
C     8.46000004  17.18000031  54.06000137
C     7.39000034  17.09000015  55.00000000
C     6.17999983  17.63000107  54.71000290
C     5.88999987  18.13999939  53.43999863
C     6.84000015  18.15999985  52.44999695
C     8.14999962  17.71999931  52.70999908
C    12.23999977  16.73999977  53.54999924
C    12.94999981  16.95000076  52.32999802
C    14.30999947  16.77000046  52.16999817
C     4.48999977  18.54999924  53.06000137
H     4.12121487  17.94463539  52.23197174
H     8.82000065  17.90999985  50.75000000
H     9.98999977  16.46999931  55.43000031
H     7.68000031  16.72999954  55.97999954
H     5.36999989  17.54999924  55.41999817
H     6.57999992  18.45999908  51.44000244
H    14.78000069  16.95000076  51.20999908
H     3.86999989  18.57999992  53.95999908
H     4.51000023  19.56999969  52.65999603
S    15.42000008  15.90999985  55.83000183
C    18.02000046  15.11999989  55.15999603
C    16.77999878  15.62000084  54.75999832
C    16.46000099  16.13000107  53.43000031
C    17.47999954  16.21000099  52.58999634
C    18.84000015  15.88999939  52.91999817
C    19.81999969  15.98000050  51.93999863
C    21.09000015  15.80000019  52.29000092
C    21.47000122  15.34999943  53.61000061
C    20.46999931  15.00000000  54.47999954
C    19.11000061  15.31999969  54.20999908
C    15.01999950  16.36999893  53.27999878
C    14.34000015  16.09000015  54.51000214
C    13.00000000  16.27000046  54.65999985
C    22.86999893  14.98999977  53.95000076
H    23.25264931  15.57133484  54.78888702
H    18.20000076  14.57999992  56.07999802
H    17.28000069  16.40999985  51.53999710
H    19.55999947  16.07999992  50.89000320
H    21.84999847  15.71000004  51.52000046
H    20.69999886  14.47000027  55.40000153
H    12.51999950  16.17000008  55.63000107
H    23.57999992  15.06999969  53.11000061
H    22.85000038  13.93000031  54.20999908
