96

S    12.31999969  17.29999924  44.58000183
C     9.59000015  17.47999954  45.21999741
C    10.88000107  17.22999954  45.61999893
C    11.17000008  16.93000031  46.98999786
C    10.10000038  16.92000008  47.87000275
C     8.76000023  17.21999931  47.50999832
C     7.72000027  17.38999939  48.46000290
C     6.47000027  17.81999969  48.06999969
C     6.24000025  18.07999992  46.70000076
C     7.26000023  18.12000084  45.77000046
C     8.50000000  17.51000023  46.12999725
C    12.61000061  16.86000061  47.19999695
C    13.35000038  17.07999992  46.00999832
C    14.73999977  17.13000107  45.97999954
C     4.81999969  18.38000107  46.26999664
H     4.52828789  17.73965645  45.43755341
H     9.47000027  17.87999916  44.22000122
H    10.26999950  16.75000000  48.93000031
H     8.00000000  17.32999992  49.51000214
H     5.64000034  18.04000092  48.74000168
H     7.11999989  18.55999947  44.79000092
H    15.29000092  17.20000076  45.04000092
H     4.09000015  18.20999908  47.08000183
H     4.76000023  19.45999908  46.11000061
S    15.77000046  16.26000023  49.69999695
C    18.45999908  15.82999992  48.95000076
C    17.20999908  16.31999969  48.66000366
C    16.87999916  16.79000092  47.35000229
C    17.86000061  16.77000046  46.37000275
C    19.15999985  16.31000137  46.69000244
C    20.13999939  16.21000099  45.66999817
C    21.42999840  15.84000015  45.97999954
C    21.76000214  15.26999950  47.23999786
C    20.82999992  15.34999943  48.25000000
C    19.52000046  15.85000038  48.01000214
C    15.44999981  17.01000023  47.18000031
C    14.72000027  16.77000046  48.36000061
C    13.32999992  16.69000053  48.39000320
C    23.15000153  14.73999977  47.50999832
H    23.56974602  15.08148670  48.45620346
H    18.54999924  15.22999954  49.86000061
H    17.46000099  16.97000122  45.38000107
H    19.81999969  16.44000053  44.65999985
H    22.14999962  15.76000023  45.17000198
H    21.04000092  14.78999996  49.15999985
H    12.75000000  16.43000031  49.27000046
H    23.82999802  15.01000023  46.70000076
H    23.05999947  13.64999962  47.55000305
S    16.26000023  13.32999992  52.25000000
C    18.90999985  12.69999981  51.45000076
C    17.57999992  12.86999893  51.16000366
C    17.11000061  12.74000072  49.80999756
C    17.97999954  12.35999966  48.81000137
C    19.36000061  12.23000050  49.09999847
C    20.28000069  11.57999992  48.22000122
C    21.56999969  11.23000050  48.54000092
C    22.04999924  11.54999924  49.82999802
C    21.22999954  12.20999908  50.72999954
C    19.85999870  12.43000031  50.44000244
C    15.67000008  12.92000008  49.72000122
C    15.06999969  13.35000038  50.93000031
C    13.73999977  13.73000050  51.05999756
C    23.46999931  11.23999977  50.22999573
H    23.71981621  11.66825581  51.20071030
H    19.26000023  12.86000061  52.47000122
H    17.64999962  11.96000004  47.85999680
H    19.80999947  11.26999950  47.29000092
H    22.21999931  10.80999947  47.77000046
H    21.50000000  12.32999992  51.77999878
H    13.30999947  14.07999992  52.00000000
H    23.59999847  10.14999962  50.17000198
H    24.14999962  11.72999954  49.52000046
S    12.23000050  12.58999920  47.50999832
C     9.61999989  13.02000046  48.50999832
C    10.98000050  12.97000027  48.70999908
C    11.52999973  13.50000000  49.92000198
C    10.71000004  13.90999985  50.96000290
C     9.30999947  13.93000031  50.77000046
C     8.45000076  14.50000000  51.75000000
C     7.13000011  14.73999977  51.44000244
C     6.63000011  14.32000065  50.17000198
C     7.35000038  13.61999989  49.23999786
C     8.75000000  13.53999996  49.50000000
C    12.97999954  13.43000031  49.92000198
C    13.50000000  12.90999985  48.70999908
C    14.85999966  12.64000034  48.61000061
C     5.19999981  14.53999996  49.72999954
H     4.94295835  14.00449562  48.81607056
H     9.17000008  12.63000011  47.61000061
H    11.05999947  14.32999992  51.90000153
H     8.93000031  14.81999969  52.67000198
H     6.47000027  15.31999969  52.06999969
H     6.80000019  13.22000027  48.40000153
H    15.19999981  12.01000023  47.78999710
H     5.07000017  15.62000084  49.62999725
H     4.53000021  14.32999992  50.58000183
