96

S    12.31999969  16.36999893  44.47999954
C     9.59999943  16.50000000  45.06999969
C    10.88000107  16.27000046  45.51000214
C    11.16000080  16.02000046  46.88999939
C    10.13000011  16.05999947  47.81000137
C     8.80999947  16.34000015  47.38999939
C     7.67000008  16.32999992  48.25000000
C     6.43000031  16.72000122  47.81999969
C     6.17000008  17.05999947  46.46999741
C     7.21000004  16.92000008  45.58000183
C     8.52999973  16.57999992  45.98999786
C    12.58999920  15.85999966  47.11000061
C    13.30999947  16.23999977  45.94999695
C    14.70000076  16.23999977  45.90000153
C     4.74000025  17.38000107  46.07999802
H     4.38238239  16.82211685  45.21456528
H     9.48000050  16.87999916  44.05000305
H    10.24000072  15.92000008  48.88000107
H     7.94000053  16.27000046  49.29999924
H     5.59000015  16.72000122  48.52000427
H     6.98999977  17.02000046  44.52000046
H    15.26000023  16.51000023  45.01999664
H     4.13999987  17.30999947  47.00000000
H     4.74000025  18.45000076  45.84999847
S    15.71000004  15.54999924  49.68999863
C    18.37000084  15.03999901  49.06999969
C    17.13999939  15.50000000  48.64999771
C    16.81999969  15.84000015  47.29999924
C    17.87999916  15.85999966  46.39999771
C    19.17000008  15.48999977  46.83000183
C    20.20999908  15.43000031  45.86000061
C    21.47000122  15.00000000  46.16000366
C    21.78999901  14.73000050  47.51999664
C    20.84000015  14.89999962  48.50999832
C    19.47000122  15.08999920  48.18000031
C    15.39000034  15.86999989  47.06999969
C    14.65999985  15.65000057  48.26000214
C    13.27000046  15.65999985  48.31999969
C    23.25000000  14.51000023  47.85999680
H    23.51352692  14.96582985  48.81439209
H    18.63000107  14.96999931  50.12000275
H    17.76000023  16.06999969  45.34000015
H    19.96000099  15.93999958  44.93000031
H    22.20000076  14.86999989  45.37000275
H    21.18000031  14.82999992  49.54000092
H    12.68000031  15.55999947  49.22999954
H    23.88000107  14.93000031  47.06999969
H    23.40999985  13.43000031  47.93000031
S    11.82000065  17.10000038  51.32999802
C     9.15000057  17.67000008  52.09999847
C    10.43000031  17.27000046  52.41000366
C    10.76000023  16.95000076  53.76999664
C     9.76000023  16.84000015  54.72000122
C     8.43000031  17.20999908  54.41999817
C     7.30999994  17.18000031  55.28999710
C     6.01999998  17.50000000  54.91000366
C     5.80999947  17.94999886  53.57999802
C     6.83000040  18.02999878  52.64999771
C     8.11999989  17.61999893  53.06999969
C    12.20000076  16.82999992  53.96999741
C    12.89000034  16.90000153  52.72999573
C    14.27000046  16.79000092  52.69000244
C     4.42999983  18.30999947  53.09000015
H     4.10982895  17.73369217  52.22198105
H     8.97999954  18.19000053  51.16000366
H     9.88000011  16.52000046  55.75000000
H     7.50999975  16.76000023  56.26999664
H     5.14999962  17.39999962  55.54000092
H     6.71999979  18.39999962  51.63999939
H    14.72000027  17.02999878  51.72999954
H     3.74000025  18.19000053  53.93000031
H     4.48999977  19.40000153  52.93000031
S    15.31000042  15.98000050  56.43000031
C    17.95999908  15.47000027  55.86999893
C    16.72999954  15.82999992  55.37000275
C    16.39999962  16.03999901  53.99000168
C    17.48999977  16.03000069  53.13999939
C    18.78999901  15.72000027  53.61000061
C    19.88000107  15.70000076  52.69000244
C    21.09000015  15.26000023  53.16999817
C    21.25999832  14.72000027  54.47000122
C    20.25000000  14.70999908  55.38999939
C    19.05999947  15.36999893  54.97000122
C    15.00000000  16.36999893  53.81000137
C    14.27000046  16.29999924  55.02999878
C    12.89999962  16.54000092  55.14999771
C    22.63999939  14.18000031  54.79999924
H    23.00916481  14.62725830  55.72291565
H    18.01000023  15.03000069  56.86000061
H    17.42000008  16.17000008  52.05999756
H    19.64999962  15.86999989  51.65000153
H    21.96000099  15.29000092  52.50999832
H    20.40999985  14.47999954  56.44000244
H    12.36999989  16.43000031  56.07999802
H    23.42000008  14.40999985  54.06999969
H    22.57999802  13.09000015  54.69999695
