96

S    12.15000057  17.00000000  44.10999680
C     9.48000050  17.61000061  44.73999786
C    10.67999935  17.05999947  45.10000229
C    11.02000046  16.65999985  46.44000244
C     9.98999977  16.59000015  47.36000061
C     8.69999981  17.06999969  47.02999878
C     7.57999992  16.95999908  47.90999985
C     6.30000019  17.30999947  47.56000137
C     6.05000019  17.88999939  46.29000092
C     7.13000011  18.06999969  45.45999908
C     8.43000031  17.54999924  45.70000076
C    12.43999958  16.36999893  46.60999680
C    13.22999954  16.68000031  45.47999954
C    14.61999989  16.59000015  45.52000046
C     4.61000013  18.22999954  45.97000122
H     4.24095821  17.64805031  45.12546539
H     9.23999977  18.20000076  43.86000061
H    10.26999950  16.13999939  48.30999756
H     7.81000042  16.64999962  48.93000031
H     5.45000029  17.15999985  48.20999908
H     6.90999985  18.64999962  44.56999969
H    15.19999981  16.81999969  44.62999725
H     4.02999973  18.09999847  46.88999939
H     4.51000023  19.29000092  45.72000122
S    15.47999954  15.34000015  49.20999908
C    18.13999939  14.68999958  48.50000000
C    16.93000031  15.27999973  48.20000076
C    16.65999985  15.90999985  46.93999863
C    17.70000076  16.02000046  46.04000092
C    18.93000031  15.38000011  46.29000092
C    19.97999954  15.42000008  45.31999969
C    21.22999954  15.06000042  45.75000000
C    21.50000000  14.29999924  46.93000031
C    20.45000076  14.13000011  47.80000305
C    19.17000008  14.70000076  47.54000092
C    15.25000000  16.18999863  46.70999908
C    14.48999977  15.95999908  47.88000107
C    13.09999943  16.02000046  47.78999710
C    22.93000031  14.07999992  47.37999725
H    23.19989014  14.68369961  48.24648666
H    18.32999992  14.09999943  49.40000153
H    17.53999901  16.53000069  45.08999634
H    19.79999924  15.88000107  44.36000061
H    22.11999893  15.19999981  45.14999771
H    20.59000015  13.78999901  48.81999969
H    12.46000099  15.95999908  48.67000198
H    23.62999916  14.21000004  46.55000305
H    23.03999901  13.00000000  47.56000137
S    15.93999958  12.57999992  52.31999969
C    18.53000069  12.02000046  51.50000000
C    17.18000031  11.97999954  51.20999908
C    16.69000053  11.63000011  49.91000366
C    17.59000015  11.25000000  48.93000031
C    18.97999954  11.25000000  49.22999954
C    19.95000076  11.03000069  48.22000122
C    21.30000114  10.92000008  48.47000122
C    21.78999901  11.23999977  49.77000427
C    20.88999939  11.63000011  50.72999954
C    19.47999954  11.64000034  50.52000046
C    15.29000092  12.02000046  49.80999756
C    14.73999977  12.53000069  51.00999832
C    13.45000076  13.03999996  51.07999802
C    23.15999985  10.84000015  50.26000214
H    23.44544983  11.14685822  51.26621246
H    18.81999969  12.56000042  52.38999939
H    17.27000046  10.98999977  47.93000031
H    19.52000046  10.84000015  47.23999786
H    22.01000023  10.47999954  47.77999878
H    21.22999954  11.87000084  51.73999786
H    13.02000046  13.35000038  52.02999878
H    23.31000137   9.75000000  50.17000198
H    23.84000015  11.26999950  49.52000046
S    11.92999935  12.23999977  47.47000122
C     9.36999989  13.00000000  48.34000015
C    10.72000027  12.84999943  48.61000061
C    11.18999958  13.19000053  49.92000198
C    10.31999969  13.60000038  50.90999985
C     8.93000031  13.61999989  50.70000076
C     8.02999973  14.13000011  51.68000031
C     6.67999983  14.18000031  51.43000031
C     6.19999981  13.73000050  50.17000198
C     7.05999947  13.35999966  49.16999817
C     8.45000076  13.20000076  49.40000153
C    12.63000011  12.97000027  49.94999695
C    13.15999985  12.48999977  48.73000336
C    14.44000053  11.94000053  48.69999695
C     4.77999973  14.07999992  49.78000259
H     4.45458698  13.74043846  48.79668808
H     8.84000015  12.76999950  47.42000198
H    10.67999935  14.01000023  51.86000061
H     8.45000076  14.55000019  52.58999634
H     6.09000015  14.80000019  52.09999847
H     6.70000029  13.02999973  48.18999863
H    14.81999969  11.54000092  47.76000214
H     4.79999971  15.18000031  49.77000427
H     4.19000006  13.71000099  50.61999893
