96

S    12.13999939  17.00000000  44.31999969
C     9.50000000  17.54999924  45.06999969
C    10.72000027  17.01000023  45.38000107
C    10.95999908  16.52000046  46.70999908
C     9.98000050  16.50000000  47.67000198
C     8.67000008  16.95999908  47.36000061
C     7.59000015  16.69000053  48.25000000
C     6.39999962  17.30999947  47.95000076
C     6.15999985  17.94999886  46.70999908
C     7.20000029  18.09999847  45.81999969
C     8.51000023  17.59000015  46.07999802
C    12.38999939  16.29999924  46.88000107
C    13.15999985  16.56999969  45.70999908
C    14.53999996  16.69000053  45.70999908
C     4.74000025  18.30000114  46.32999802
H     4.37879848  17.69091415  45.50135803
H     9.30000019  17.98999977  44.09000015
H    10.10000038  15.93000031  48.59000397
H     7.72000027  16.10999870  49.15000153
H     5.61999989  17.06999969  48.67000198
H     7.11000013  18.27000046  44.75000000
H    15.03999901  16.92000008  44.78000259
H     4.17000008  18.01000023  47.21000290
H     4.72000027  19.38999939  46.23000336
S    15.62999916  15.53999996  49.34000015
C    18.37000084  15.39000034  48.63999939
C    17.07999992  15.77999973  48.34999847
C    16.69999886  16.28000069  47.05999756
C    17.70000076  16.31999969  46.10000229
C    19.03000069  15.88000107  46.31000137
C    19.96000099  15.88999939  45.24000168
C    21.27000046  15.54999924  45.48999786
C    21.60000038  15.06000042  46.77999878
C    20.65000153  14.80000019  47.74000168
C    19.37000084  15.42000008  47.63000107
C    15.25000000  16.34000015  46.86999893
C    14.52000046  15.95000076  48.02000046
C    13.12999916  15.98999977  48.02999878
C    23.05000114  14.88000011  47.18000031
H    23.34819794  15.42669773  48.07459641
H    18.48999977  14.86999989  49.58000183
H    17.46000099  16.54000092  45.06999969
H    19.65999985  16.26000023  44.26000214
H    22.03000069  15.90000057  44.79999924
H    20.75000000  14.26000023  48.67000198
H    12.57999992  15.88999939  48.95999908
H    23.72999954  15.19000053  46.38999939
H    23.19999886  13.82999992  47.45999908
S    16.09000015  13.27999973  52.43999863
C    18.72999954  12.64999962  51.63000107
C    17.36999893  12.58999920  51.43000031
C    16.84999847  12.02000046  50.21999741
C    17.70000076  11.59999943  49.22000122
C    19.10000038  11.54000092  49.45999908
C    19.98999977  11.00000000  48.48999786
C    21.31999969  10.90999985  48.81000137
C    21.80000114  11.36000061  50.06999969
C    20.98999977  11.90000057  51.04999924
C    19.62000084  12.03999996  50.70000076
C    15.42000008  12.25000000  50.11000061
C    14.84000015  12.89000034  51.24000168
C    13.53000069  13.32999992  51.32999802
C    23.28000069  11.30000019  50.37000275
H    23.50080681  11.69887733  51.36007309
H    19.11999893  13.09999943  52.54000092
H    17.31999969  11.25000000  48.26000214
H    19.64999962  10.50000000  47.57999802
H    21.90999985  10.51000023  47.98999786
H    21.28999901  12.22000027  52.04999924
H    13.27999973  13.86000061  52.25000000
H    23.57000160  10.26000023  50.14999771
H    23.77000046  11.97000027  49.65999985
S    12.13000107  12.27000046  47.72999573
C     9.51000023  13.04999924  48.34000015
C    10.85000038  13.07000065  48.66000366
C    11.30000019  13.38000107  49.98000336
C    10.29000092  13.67000008  50.89000320
C     8.92000008  13.76000023  50.56999969
C     8.01000023  14.13000011  51.59999847
C     6.67000008  14.09999943  51.32999802
C     6.25999975  13.96999931  49.97000122
C     7.09000015  13.45999908  49.00000000
C     8.48999977  13.45000076  49.22999954
C    12.69000053  13.04999924  50.24000168
C    13.25000000  12.42000008  49.09999847
C    14.60000038  12.13000107  48.97999573
C     4.79999971  14.14999962  49.61000061
H     4.55065870  13.97902298  48.56276703
H     9.18000031  12.53999901  47.43999863
H    10.62000084  13.78999901  51.91999817
H     8.30999947  14.45000076  52.60000229
H     5.96000004  14.40000057  52.09000015
H     6.65000010  13.14000034  48.04999924
H    15.03999901  11.78999996  48.04999924
H     4.39000034  15.06999969  50.04000092
H     4.23999977  13.36999989  50.13999939
