96

S    12.02000046  17.34000015  44.20999908
C     9.35000038  17.81999969  45.04000092
C    10.59999943  17.27000046  45.26000214
C    10.98000050  16.87999916  46.58000183
C    10.01999950  16.77999878  47.56999969
C     8.69999981  17.25000000  47.37999725
C     7.63000011  17.05000114  48.29999924
C     6.35999966  17.50000000  48.02999878
C     6.03999996  18.12000084  46.79000092
C     7.05999947  18.26000023  45.87999725
C     8.39999962  17.81999969  46.09000397
C    12.43000031  16.77999878  46.73999786
C    13.15000057  17.00000000  45.54000092
C    14.53999996  16.98999977  45.48999786
C     4.61000013  18.36000061  46.37000275
H     4.35369921  17.73348618  45.51566696
H     9.25000000  18.35000038  44.09999847
H    10.18000031  16.23999977  48.50000000
H     7.77999973  16.64999962  49.29999924
H     5.64000034  17.28999901  48.81000137
H     6.88000011  18.60000038  44.86999893
H    15.03999901  17.11000061  44.52999878
H     4.01999998  18.04000092  47.25000000
H     4.46999979  19.42000008  46.16000366
S    15.59000015  16.05999947  49.23999786
C    18.22000122  15.43000031  48.40999985
C    16.97000122  15.90999985  48.13999939
C    16.68000031  16.47999954  46.84999847
C    17.64999962  16.46999931  45.86000061
C    18.94000053  15.95999908  46.12999725
C    19.96999931  15.95000076  45.14999771
C    21.18999863  15.39000034  45.43000031
C    21.53000069  14.88000011  46.70999908
C    20.55999947  14.93000031  47.69000244
C    19.23999977  15.39999962  47.42000198
C    15.25000000  16.63999939  46.63999939
C    14.55000019  16.45000076  47.85999680
C    13.15999985  16.46000099  47.88000107
C    22.95999908  14.44000053  46.95000076
H    23.39366913  14.97319984  47.79600906
H    18.46999931  15.01999950  49.38999939
H    17.30999947  16.84999847  44.89999771
H    19.80999947  16.39999962  44.16999817
H    21.86000061  15.39000034  44.58000183
H    20.78000069  14.65999985  48.70999908
H    12.56999969  16.31999969  48.79000092
H    23.46999931  14.68999958  46.00999832
H    22.96999931  13.35000038  47.04999924
S    11.89000034  17.35999870  51.07999802
C     9.22000027  17.75000000  51.72000122
C    10.44000053  17.25000000  52.11000061
C    10.77999973  16.93000031  53.46000290
C     9.76000023  16.97000122  54.38999939
C     8.43000031  17.25000000  54.00000000
C     7.31999969  17.23999977  54.88999939
C     6.07999992  17.68000031  54.47000122
C     5.86999989  18.20000076  53.16999817
C     6.90000010  18.22999954  52.25000000
C     8.17000008  17.75000000  52.68000031
C    12.20000076  16.69000053  53.68000031
C    12.89999962  16.93000031  52.47000122
C    14.27999973  16.97000122  52.39999771
C     4.51999998  18.71000099  52.74000168
H     4.04815912  18.05943108  52.00364304
H     9.13000011  18.17000008  50.72999954
H     9.94000053  16.75000000  55.44000244
H     7.40999985  16.81999969  55.89000320
H     5.31000042  17.65999985  55.22999573
H     6.77999973  18.73999977  51.29000092
H    14.93999958  17.34000015  51.60999680
H     3.86000013  18.77000046  53.61000061
H     4.65000010  19.73999977  52.36000061
S    15.31000042  15.78999996  56.09000397
C    17.95999908  15.43000031  55.34000015
C    16.72999954  15.97000027  55.04000092
C    16.38000107  16.39999962  53.72000122
C    17.42000008  16.62999916  52.83000183
C    18.70000076  16.09000015  53.11000061
C    19.69000053  16.00000000  52.09000015
C    20.88999939  15.38000011  52.34000397
C    21.21000099  14.88999939  53.62999725
C    20.19000053  14.70999908  54.54000092
C    18.96000099  15.39999962  54.34000015
C    14.93999958  16.54999924  53.55999756
C    14.23999977  16.31000137  54.77000427
C    12.86000061  16.34000015  54.86999893
C    22.56000137  14.32999992  54.01000214
H    22.92220497  14.84845161  54.89776230
H    18.01000023  15.00000000  56.33999634
H    17.18000031  16.88999939  51.79999924
H    19.36000061  16.27000046  51.09000397
H    21.60000038  15.26000023  51.52999878
H    20.36000061  14.21000004  55.48999786
H    12.38000011  16.18000031  55.83000183
H    23.32999992  14.52000046  53.26000214
H    22.43000031  13.23999977  54.10999680
