96

S    11.95000076  16.43000031  44.52999878
C     9.30999947  16.87999916  45.28999710
C    10.55999947  16.42000008  45.63999939
C    10.95000076  16.18000031  46.98999786
C     9.98999977  16.20000076  47.98999786
C     8.64999962  16.46999931  47.63999939
C     7.62000036  16.31999969  48.60000229
C     6.32999992  16.73999977  48.36000061
C     6.06999969  17.27000046  47.06999969
C     6.97000027  17.23999977  46.03000259
C     8.30999947  16.86000061  46.29000092
C    12.38999939  15.98000050  47.14000320
C    13.04999924  16.17000008  45.90000153
C    14.42000008  16.06999969  45.75000000
C     4.67000008  17.78000069  46.79999924
H     4.32928848  17.13406944  45.99081039
H     9.02000046  17.27000046  44.31000137
H    10.22999954  15.95999908  49.02000046
H     7.88000011  15.95000076  49.59000015
H     5.53999996  16.95000076  49.09000015
H     6.84000015  17.64999962  45.02999878
H    14.94999981  16.26000023  44.81999969
H     3.91999984  17.61000061  47.57999802
H     4.63000011  18.85000038  46.56999969
S    15.64000034  15.31000042  49.45000076
C    18.31999969  15.14000034  48.67000198
C    17.04000092  15.53999996  48.37999725
C    16.60000038  15.82999992  47.04999924
C    17.52000046  15.72000027  46.02000427
C    18.88000107  15.47000027  46.31000137
C    19.88999939  15.25000000  45.33000183
C    21.14999962  14.80000019  45.65000153
C    21.55999947  14.47000027  46.97000122
C    20.65000153  14.80000019  47.95000076
C    19.30999947  15.15999985  47.64999771
C    15.14999962  16.01000023  46.93999863
C    14.50000000  15.77999973  48.18000031
C    13.10999966  15.71000004  48.30999756
C    22.96999931  14.13000011  47.39999771
H    23.13344765  14.42136383  48.43753815
H    18.59000015  14.84000015  49.68000031
H    17.11000061  15.84000015  45.01999664
H    19.55000114  15.31000042  44.29999924
H    21.93000031  14.89999962  44.89999771
H    20.93000031  14.61999989  48.99000168
H    12.61999989  15.59000015  49.27000046
H    23.68000031  14.65999985  46.75000000
H    23.05999947  13.03999996  47.34000397
S    15.72999954  13.07999992  52.55000305
C    18.31999969  12.60000038  51.73999786
C    16.98999977  12.56999969  51.40999603
C    16.44000053  12.15999985  50.14999771
C    17.34000015  11.64999962  49.22999954
C    18.72999954  11.67000008  49.48999786
C    19.63999939  11.19999981  48.50999832
C    20.96999931  11.13000011  48.83999634
C    21.51000023  11.43000031  50.11000061
C    20.59000015  11.79999924  51.06999969
C    19.23999977  12.11999989  50.76000214
C    14.98000050  12.13999939  50.14999771
C    14.47000027  12.56999969  51.39999771
C    13.12000084  12.86999893  51.55000305
C    22.90999985  11.00999928  50.48999786
H    23.12973976  11.27227020  51.52490234
H    18.65999985  12.81000042  52.75000000
H    17.07999992  11.13999939  48.29999924
H    19.18000031  10.75000000  47.63000107
H    21.60000038  10.55999947  48.15999985
H    20.72999954  11.68000031  52.14000320
H    12.71000004  13.17999935  52.50999832
H    23.02000046   9.92000008  50.47999954
H    23.67000198  11.38000011  49.79000092
S    11.61999893  12.28999996  47.90000153
C     8.97999954  12.61000061  48.81999969
C    10.32999992  12.72999954  49.03999710
C    10.81999969  12.93000031  50.37000275
C     9.94000053  13.22000027  51.38999939
C     8.57999992  13.42000008  51.07999802
C     7.67000008  13.96000004  52.04000092
C     6.38000011  14.22000027  51.65000153
C     5.84999990  13.78999901  50.40999985
C     6.69000053  13.21000004  49.48999786
C     8.05000019  12.97000027  49.81999969
C    12.25999928  12.71000004  50.45999908
C    12.81000042  12.31999969  49.22000122
C    14.15999985  12.02999973  49.02000046
C     4.41000032  13.99000072  49.99000168
H     4.11876583  13.42884159  49.10209274
H     8.57999992  12.32999992  47.84000015
H    10.29000092  13.40999985  52.41000366
H     7.95000029  14.22999954  53.06000137
H     5.69999981  14.52999973  52.43999863
H     6.23000050  12.88000011  48.55999756
H    14.48999977  11.87999916  48.00000000
H     4.35999966  15.06999969  49.81999969
H     3.68000007  13.81999969  50.79000092
