96

S    12.32999992  16.61999893  44.15999985
C     9.72999954  17.34000015  45.08999634
C    10.98999977  16.82999992  45.30000305
C    11.33999920  16.40999985  46.62000275
C    10.42000008  16.32999992  47.64999771
C     9.11000061  16.81999969  47.44999695
C     8.06999969  16.57999992  48.39000320
C     6.77999973  17.01000023  48.15000153
C     6.48000002  17.72999954  46.95999908
C     7.49000025  17.92000008  46.04999924
C     8.82999992  17.43999863  46.18000031
C    12.79000092  16.31999969  46.77999878
C    13.43999958  16.36999893  45.52000046
C    14.81999969  16.46999931  45.43000031
C     5.05000019  18.06999969  46.59999847
H     4.70818424  17.60712433  45.67425156
H     9.44000053  17.64999962  44.08000183
H    10.67000008  15.77000046  48.54999924
H     8.23000050  16.11999893  49.36000061
H     6.03999996  16.81999969  48.92000198
H     7.11999989  18.35000038  45.12000275
H    15.25000000  16.63999939  44.43999863
H     4.36999989  17.71999931  47.38999939
H     4.90000010  19.13999939  46.38000107
S    16.00000000  15.80000019  49.15999985
C    18.61999893  15.17000008  48.29000092
C    17.35999870  15.65999985  48.04000092
C    17.05999947  16.17000008  46.72999954
C    18.00000000  16.31000137  45.72999954
C    19.31999969  15.86999989  46.00999832
C    20.36000061  15.90000057  45.02999878
C    21.61999893  15.53999996  45.43000031
C    21.94000053  15.13000011  46.76000214
C    20.94000053  14.93000031  47.68000031
C    19.63000107  15.31999969  47.29999924
C    15.60999966  16.27000046  46.56000137
C    14.93999958  16.27000046  47.81000137
C    13.55999947  16.28999901  47.95000076
C    23.38999939  14.80000019  47.04000092
H    23.58227921  15.03500843  48.08685303
H    18.78999901  14.63000107  49.22000122
H    17.68000031  16.70999908  44.78000259
H    20.13000107  16.44000053  44.12000275
H    22.39000130  15.53999996  44.65999985
H    21.09000015  14.52999973  48.68000031
H    13.12000084  16.38000107  48.94000244
H    24.13000107  15.21000004  46.32999802
H    23.45000076  13.71000099  47.02000046
S    15.69000053  13.45000076  51.98999786
C    18.29000092  12.71999931  51.27999878
C    16.95000076  12.69000053  50.98999786
C    16.46999931  12.23000050  49.72999954
C    17.36999893  11.73999977  48.80000305
C    18.77000046  11.77000046  49.01000214
C    19.70999908  11.52999973  47.97000122
C    21.04999924  11.42000008  48.27000046
C    21.45999908  11.57999992  49.61999893
C    20.55999947  11.95000076  50.59000015
C    19.19999886  12.23999977  50.30000305
C    15.03000069  12.41000080  49.59000015
C    14.52999973  13.14000034  50.68999863
C    13.17999935  13.48999977  50.76000214
C    22.92000008  11.39000034  49.98000336
H    23.17568588  11.66699219  51.00274658
H    18.56999969  12.98999977  52.29000092
H    16.93000031  11.68000031  47.81000137
H    19.29999924  11.23999977  47.00000000
H    21.81999969  11.26000023  47.50999832
H    20.72000122  12.03999996  51.65999985
H    12.75000000  13.89999962  51.66999817
H    23.18000031  10.34000015  49.80999756
H    23.51000023  12.00000000  49.29000092
S    11.59999943  12.25999928  47.29999924
C     8.97999954  12.76000023  48.31999969
C    10.34999943  12.79999924  48.43999863
C    10.92000008  13.30999947  49.65000153
C    10.14000034  13.85000038  50.65999985
C     8.73000050  13.73999977  50.56000137
C     7.81000042  14.23999977  51.52000046
C     6.48000002  14.40999985  51.18999863
C     5.84000015  13.97999954  50.00000000
C     6.72999954  13.38999939  49.13999939
C     8.13000011  13.23999977  49.34999847
C    12.35999966  13.17000008  49.66999817
C    12.86999893  12.50000000  48.52000427
C    14.19999981  12.10999966  48.50000000
C     4.40000010  14.29999924  49.66999817
H     4.08569527  13.95712185  48.68422699
H     8.38000011  12.31999969  47.52999878
H    10.59999943  14.40999985  51.46999741
H     8.09000015  14.60000038  52.50999832
H     5.89999962  15.01000023  51.88000107
H     6.44999981  13.20000076  48.11000061
H    14.78000069  11.78999996  47.63999939
H     4.19999981  15.36999893  49.80999756
H     3.75999975  13.75000000  50.37000275
