96

S    12.34000015  17.18000031  44.01000214
C     9.70000076  17.71000099  44.80999756
C    10.92000008  17.12000084  45.06999969
C    11.23000050  16.67000008  46.38999939
C    10.25000000  16.69999886  47.36999893
C     8.93999958  17.18000031  47.14000320
C     7.88999987  17.22999954  48.11000061
C     6.63000011  17.65999985  47.77999878
C     6.32999992  18.06999969  46.45000076
C     7.36000013  18.06999969  45.52999878
C     8.69000053  17.64000130  45.79999924
C    12.64999962  16.44000053  46.56000137
C    13.38000107  16.67000008  45.35999680
C    14.77000046  16.61000061  45.35999680
C     4.90999985  18.31999969  46.00999832
H     4.51892090  17.64449883  45.24917221
H     9.39999962  18.04000092  43.81999969
H    10.38000011  16.28999901  48.36999893
H     8.07999992  16.94000053  49.13000107
H     5.88000011  17.71999931  48.56999969
H     7.13000011  18.37000084  44.51000214
H    15.31999969  17.05000114  44.54000092
H     4.33999968  18.34000015  46.93999863
H     4.85000038  19.31999969  45.56000137
S    15.70000076  15.57999992  49.09999847
C    18.44000053  15.39999962  48.44999695
C    17.14999962  15.72000027  48.09000015
C    16.87000084  16.10000038  46.73999786
C    17.88999939  16.18999863  45.80999756
C    19.19000053  15.72999954  46.10000229
C    20.32999992  15.75000000  45.24000168
C    21.55999947  15.25000000  45.59000015
C    21.76000214  14.59000015  46.83000183
C    20.72000122  14.73000050  47.72999573
C    19.44000053  15.26999950  47.43999863
C    15.43000031  16.20000076  46.52999878
C    14.68000031  16.00000000  47.70999908
C    13.28999996  16.13000107  47.77000046
C    23.13999939  14.14000034  47.25999832
H    23.44549370  14.71546268  48.13385010
H    18.71000099  15.24000072  49.48999786
H    17.64999962  16.52000046  44.79999924
H    20.19000053  16.03000069  44.20000076
H    22.43000031  15.39000034  44.97000122
H    20.86000061  14.37999916  48.75000000
H    12.76000023  15.90000057  48.68000031
H    23.88000107  14.18000031  46.45999908
H    23.09999847  13.07999992  47.54000092
S    15.80000019  12.97999954  52.22999954
C    18.45000076  12.32999992  51.45000076
C    17.09000015  12.28000069  51.23000336
C    16.62999916  11.96000004  49.91000366
C    17.43999863  11.46000004  48.90999603
C    18.81999969  11.28999901  49.19000244
C    19.77000046  10.86999989  48.22000122
C    21.11999893  10.78999996  48.47999954
C    21.52000046  11.10999966  49.80999756
C    20.66999817  11.59000015  50.77999878
C    19.29999924  11.77999973  50.45999908
C    15.21000004  12.25000000  49.75999832
C    14.61999989  12.81000042  50.91999817
C    13.34000015  13.35000038  50.90999985
C    22.93999863  10.81999969  50.22999573
H    23.14607239  11.01896763  51.28168106
H    18.86999893  12.72999954  52.36000061
H    17.17000008  11.32999992  47.85999680
H    19.44000053  10.59999943  47.22000122
H    21.81999969  10.47999954  47.70999908
H    21.04000092  12.02999973  51.70000076
H    12.86999893  13.55999947  51.86999893
H    23.16999817   9.75000000  50.06999969
H    23.67000198  11.28999901  49.55999756
S    11.95000076  12.51000023  47.29000092
C     9.26000023  12.97999954  48.04999924
C    10.59999943  12.89999962  48.36999893
C    11.10000038  13.34000015  49.64000320
C    10.19000053  13.80000019  50.58000183
C     8.82000065  13.97999954  50.27000046
C     7.92999983  14.50000000  51.25000000
C     6.61000013  14.67000008  50.90000153
C     6.09000015  14.18000031  49.66999817
C     6.94999981  13.59000015  48.76999664
C     8.34999943  13.53000069  48.99000168
C    12.53000069  13.17000008  49.78000259
C    13.12000084  12.60000038  48.61999893
C    14.42999935  12.11999989  48.61000061
C     4.61999989  14.32999992  49.36000061
H     4.35656786  13.88857460  48.39883041
H     8.85999966  12.57999992  47.11999893
H    10.54999924  14.07999992  51.56999969
H     8.15999985  14.63000107  52.29999924
H     6.01000023  15.03000069  51.72999954
H     6.50000000  13.22999954  47.84999847
H    14.85999966  11.75000000  47.68000031
H     4.56999969  15.43000031  49.40999985
H     4.03999996  13.86999989  50.17000198
