96

S    12.23000050  16.54999924  44.29999924
C     9.55999947  17.07999992  44.98000336
C    10.78999996  16.56999969  45.34000015
C    11.16000080  16.17000008  46.65999985
C    10.19000053  16.17000008  47.64999771
C     8.92000008  16.69000053  47.30999756
C     7.90999985  16.67000008  48.30999756
C     6.60000038  17.04000092  48.09000015
C     6.25999975  17.60000038  46.83000183
C     7.22000027  17.57999992  45.84999847
C     8.55000019  17.10000038  45.97999954
C    12.56999969  15.88999939  46.88000107
C    13.27999973  16.13000107  45.66999817
C    14.65999985  16.03000069  45.63000107
C     4.88000011  18.02999878  46.38000107
H     4.55876637  17.33756256  45.60189819
H     9.38000011  17.65999985  44.08000183
H    10.39999962  15.81999969  48.66000366
H     8.23999977  16.25000000  49.25000000
H     5.77000046  16.72000122  48.72000122
H     6.88000011  17.82999992  44.85000229
H    15.18000031  16.21000099  44.68999863
H     4.13000011  17.98999977  47.18000031
H     4.92000008  19.06999969  46.03000259
S    15.72000027  15.25000000  49.40000153
C    18.37000084  14.85000038  48.67000198
C    17.11000061  15.25000000  48.29999924
C    16.84000015  15.57999992  46.93000031
C    17.87999916  15.51000023  46.03000259
C    19.22000122  15.17000008  46.35000229
C    20.25000000  15.14000034  45.37000275
C    21.53000069  14.85999966  45.77000046
C    21.77999878  14.55999947  47.14000320
C    20.76999855  14.51000023  48.08000183
C    19.45000076  14.92000008  47.75000000
C    15.39999962  15.77999973  46.79999924
C    14.67000008  15.53999996  47.98999786
C    13.27999973  15.57000065  48.04000092
C    23.22000122  14.48999977  47.60000229
H    23.46967888  15.19623089  48.39183426
H    18.53000069  14.47000027  49.68000031
H    17.57999992  15.67000008  45.00000000
H    20.03000069  15.43000031  44.34999847
H    22.40999985  15.03999901  45.14999771
H    20.89999962  14.32000065  49.13999939
H    12.84999943  15.36999893  49.02000046
H    23.92999840  14.48999977  46.77000046
H    23.38999939  13.52000046  48.06000137
S    16.14999962  12.97000027  52.43999863
C    18.82999992  12.35999966  51.77000046
C    17.48999977  12.35999966  51.45000076
C    16.98999977  11.95000076  50.17000198
C    17.89999962  11.54000092  49.22000122
C    19.27999878  11.54000092  49.52999878
C    20.25000000  11.13999939  48.56999969
C    21.57999992  11.10000038  48.92000198
C    22.06999969  11.49000072  50.19000244
C    21.17000198  11.90000057  51.14999771
C    19.78999901  11.94000053  50.81999969
C    15.53999996  11.97000027  50.06000137
C    14.93999958  12.57999992  51.19999695
C    13.60999966  12.97000027  51.24000168
C    23.57000160  11.39999962  50.38000107
H    23.79053116  11.78414917  51.37594223
H    19.23999977  12.92000008  52.61000061
H    17.54999924  11.35000038  48.20999908
H    19.90999985  10.85999966  47.56999969
H    22.30999947  10.85000038  48.15999985
H    21.47000122  12.41000080  52.05999756
H    13.09999943  13.27000046  52.15000153
H    23.81999969  10.32999992  50.33000183
H    24.13000107  11.89000034  49.58000183
S    12.22000027  12.10999966  47.63000107
C     9.52000046  12.69999981  48.39000320
C    10.85999966  12.58999920  48.67000198
C    11.36999989  12.84999943  49.98000336
C    10.52000046  13.40000057  50.93000031
C     9.13999939  13.57999992  50.63999939
C     8.19000053  14.04999924  51.58000183
C     6.85999966  14.18000031  51.23000336
C     6.38000011  13.86000061  49.93999863
C     7.22000027  13.22000027  49.06000137
C     8.60000038  13.14000034  49.38000107
C    12.79999924  12.67000008  50.13999939
C    13.38000107  12.10999966  48.96999741
C    14.73999977  11.84000015  48.90999603
C     4.88999987  13.81000042  49.68999863
H     4.72643661  13.39753628  48.69439697
H     9.04999924  12.58999920  47.41000366
H    10.98000050  13.86999989  51.79000092
H     8.53999996  14.37000084  52.56000137
H     6.17000008  14.68000031  51.90999985
H     6.90999985  12.81999969  48.09999847
H    15.06999969  11.52999973  47.93000031
H     4.42000008  14.80000019  49.72000122
H     4.42000008  13.15000057  50.43000031
