96

S    12.23999977  17.07999992  44.23999786
C     9.57999992  17.42000008  44.93000031
C    10.81999969  16.94000053  45.28999710
C    11.16000080  16.39000130  46.56999969
C    10.13000011  16.21999931  47.48000336
C     8.82999992  16.69999886  47.21000290
C     7.73000002  16.69000053  48.11999893
C     6.50000000  17.19000053  47.77000046
C     6.25999975  17.80999947  46.52000046
C     7.35000038  17.97999954  45.70000076
C     8.57999992  17.30999947  45.93999863
C    12.60000038  16.21000099  46.70000076
C    13.34000015  16.63999939  45.56999969
C    14.73000050  16.69999886  45.58000183
C     4.82999992  18.17000008  46.18000031
H     4.52342510  17.68518257  45.25314331
H     9.39000034  18.12000084  44.12000275
H    10.34999943  15.72999954  48.41999817
H     7.83999968  16.25000000  49.10999680
H     5.80999947  17.29999924  48.61000061
H     7.30999994  18.55999947  44.78000259
H    15.26000023  16.87999916  44.65000153
H     4.15000010  17.88999939  46.98999786
H     4.85000038  19.27000046  46.18000031
S    15.72000027  15.39999962  49.26000214
C    18.34000015  15.03000069  48.50000000
C    17.14999962  15.64000034  48.22999954
C    16.77000046  16.04999924  46.90000153
C    17.69000053  15.93000031  45.86999893
C    19.00000000  15.47999954  46.13999939
C    20.10000038  15.60999966  45.24000168
C    21.38000107  15.21000004  45.56000137
C    21.67000008  14.65999985  46.84000015
C    20.62999916  14.55999947  47.72999573
C    19.29999924  14.98999977  47.45999908
C    15.34999943  16.34000015  46.77999878
C    14.65000057  15.90000057  47.93000031
C    13.26000023  15.85999966  47.88000107
C    23.06999969  14.40000057  47.36000061
H    23.19812584  14.57795334  48.42771530
H    18.63000107  14.60999966  49.45999908
H    17.46999931  16.38000107  44.91000366
H    19.98999977  16.09000015  44.27000046
H    22.19000053  15.40999985  44.86999893
H    20.81999969  14.39000034  48.79000092
H    12.75000000  15.44000053  48.74000168
H    23.81999969  14.94999981  46.77000046
H    23.28000069  13.35000038  47.12999725
S    11.97000027  17.22999954  50.86999893
C     9.27999973  17.60000038  51.56000137
C    10.53999996  17.19000053  51.91999817
C    10.84000015  16.76000023  53.25000000
C     9.84000015  16.70999908  54.20000076
C     8.52999973  17.13999939  53.87000275
C     7.50999975  17.26000023  54.86000061
C     6.19000006  17.46000099  54.54999924
C     5.92000008  17.94000053  53.23999786
C     6.93000031  18.07999992  52.31999969
C     8.23999977  17.54999924  52.51999664
C    12.27000046  16.50000000  53.36999893
C    13.02999973  16.69999886  52.18999863
C    14.42000008  16.69999886  52.12999725
C     4.56999969  18.45000076  52.77999878
H     4.11960506  17.83517456  52.00074768
H     9.09000015  18.17000008  50.65000153
H    10.06000042  16.46000099  55.22999573
H     7.82000017  17.17000008  55.90000153
H     5.47999954  17.43999863  55.37000275
H     6.80000019  18.57999992  51.37000275
H    14.91000080  17.13000107  51.25999832
H     3.95000005  18.39999962  53.68999863
H     4.69999981  19.50000000  52.47000122
S    15.43000031  15.57999992  55.79999924
C    18.12000084  15.26000023  55.15999603
C    16.88999939  15.75000000  54.79999924
C    16.55999947  16.26000023  53.50000000
C    17.61000061  16.36999893  52.60000229
C    18.90999985  15.95000076  52.93000031
C    19.85999870  15.78999996  51.88000107
C    21.18000031  15.52000046  52.19999695
C    21.45999908  15.07999992  53.52000427
C    20.51000214  14.98999977  54.51000214
C    19.19000053  15.44999981  54.25000000
C    15.13000011  16.32999992  53.27999878
C    14.37999916  16.00000000  54.43999863
C    12.98999977  16.01000023  54.47000122
C    22.92000008  14.93000031  53.87000275
H    23.09747887  15.28496075  54.88518906
H    18.35000038  14.73000050  56.07999802
H    17.40999985  16.61999893  51.56000137
H    19.56999969  16.28000069  50.96000290
H    21.94999886  15.64000034  51.45000076
H    20.72999954  14.60999966  55.50000000
H    12.43000031  15.72999954  55.35999680
H    23.46999931  15.57999992  53.18000031
H    23.12999916  13.86000061  53.75999832
