96

S    12.30999947  16.84999847  44.06999969
C     9.64999962  17.17000008  44.89999771
C    10.88999939  16.60000038  45.10000229
C    11.23000050  16.06999969  46.38999939
C    10.31000042  16.03000069  47.42000198
C     8.97999954  16.46999931  47.19999695
C     7.94000053  16.21000099  48.13999939
C     6.65000010  16.52000046  47.78999710
C     6.34999990  17.27000046  46.62000275
C     7.37999964  17.61000061  45.77000046
C     8.69999981  17.11000061  45.93999863
C    12.64999962  15.75000000  46.52999878
C    13.34000015  16.28000069  45.40000153
C    14.72000027  16.39999962  45.35999680
C     4.92999983  17.68000031  46.30000305
H     4.43266535  17.01214981  45.59663010
H     9.42000008  17.71999931  43.99000168
H    10.47000027  15.46000004  48.33000183
H     8.27000046  15.77999973  49.08000183
H     5.80999947  16.35000038  48.44999695
H     7.18999958  18.15999985  44.86000061
H    15.29000092  16.92000008  44.59999847
H     4.38000011  17.69000053  47.25000000
H     4.86000013  18.65999985  45.81999969
S    15.82999992  15.52000046  49.08000183
C    18.52000046  15.07999992  48.27999878
C    17.23999977  15.50000000  48.01000214
C    16.93000031  15.93000031  46.68000031
C    17.88999939  15.84000015  45.68000031
C    19.19999886  15.40999985  45.98999786
C    20.28000069  15.32999992  45.06999969
C    21.54999924  14.98000050  45.45999908
C    21.90000153  14.77000046  46.81999969
C    20.90999985  14.81999969  47.77000046
C    19.57999992  15.10000038  47.34000397
C    15.48999977  16.05999947  46.47999573
C    14.78000069  15.77000046  47.67000198
C    13.40000057  15.57999992  47.69000244
C    23.34000015  14.55000019  47.25000000
H    23.46090508  15.09051514  48.18878937
H    18.71999931  14.80000019  49.31000137
H    17.60000038  16.13000107  44.66999817
H    20.06000137  15.67000008  44.05000305
H    22.34999847  14.93999958  44.72000122
H    21.21999931  14.65999985  48.80000305
H    12.84999943  15.44000053  48.61000061
H    24.05999947  14.63999939  46.43000031
H    23.34000015  13.48000050  47.47000122
S    12.15000057  17.13000107  50.68999863
C     9.48000050  17.43999863  51.39999771
C    10.72000027  16.93000031  51.72000122
C    11.07999992  16.54000092  53.04999924
C    10.06999969  16.40999985  53.97999573
C     8.76999950  16.86000061  53.67000198
C     7.76000023  16.63999939  54.65000153
C     6.48999977  17.12000084  54.40000153
C     6.21000004  17.80999947  53.18999863
C     7.11000013  17.84000015  52.15000153
C     8.43999958  17.38999939  52.36999893
C    12.53000069  16.56999969  53.25000000
C    13.23999977  16.93000031  52.08000183
C    14.63000107  16.87999916  52.04999924
C     4.80999994  18.30000114  52.93000031
H     4.33237362  17.65128326  52.19573975
H     9.35999966  17.88999939  50.41999817
H    10.15999985  15.78999996  54.86999893
H     7.96000004  16.15999985  55.59000015
H     5.66999960  17.02999878  55.11000061
H     6.91999960  18.23999977  51.14999771
H    15.13000011  17.19000053  51.13999939
H     4.21000004  18.37000084  53.85000229
H     4.77999973  19.36000061  52.63999939
S    15.62999916  15.80999947  55.77000046
C    18.32999992  15.52999973  55.13999939
C    17.06999969  15.93000031  54.75000000
C    16.72000122  16.36999893  53.43000031
C    17.75000000  16.40999985  52.50999832
C    19.07999992  16.06999969  52.88000107
C    20.10999870  16.17000008  51.90999985
C    21.40999985  15.82999992  52.19999695
C    21.73000145  15.44000053  53.53000259
C    20.78000069  15.44000053  54.52000046
C    19.40000153  15.67999935  54.22999954
C    15.29000092  16.53000069  53.23999786
C    14.55999947  16.20000076  54.40999985
C    13.17000008  16.27000046  54.45999908
C    23.12999916  15.01999950  53.89999771
H    23.39347649  15.51846886  54.83284760
H    18.42000008  15.07999992  56.12999725
H    17.56000137  16.67000008  51.47999573
H    19.80999947  16.46000099  50.90999985
H    22.20999908  15.80999947  51.46999741
H    20.97999954  15.08999920  55.52999878
H    12.69000053  15.88999939  55.34999847
H    23.87000084  15.21999931  53.11000061
H    23.13999939  13.93000031  54.06999969
