96

S    12.28999996  16.84999847  43.94000244
C     9.61000061  17.15999985  44.56999969
C    10.85999966  16.76000023  44.98000336
C    11.18000031  16.47999954  46.35000229
C    10.17000008  16.53000069  47.29000092
C     8.86999989  16.95999908  46.91999817
C     7.81000042  17.14999962  47.84999847
C     6.61000013  17.71999931  47.47000122
C     6.38999987  18.09000015  46.11999893
C     7.36999989  17.90999985  45.18000031
C     8.59000015  17.28999901  45.54999924
C    12.61999989  16.36000061  46.55000305
C    13.32999992  16.61999893  45.34999847
C    14.72000027  16.62999916  45.27000046
C     5.00000000  18.37000084  45.59000015
H     4.48048925  17.52312660  45.14165497
H     9.48999977  17.56000137  43.55999756
H    10.43000031  16.25000000  48.30999756
H     7.97999954  16.77000046  48.85000229
H     5.84999990  17.94999886  48.20000076
H     7.20000029  17.85000038  44.09999847
H    15.29000092  16.72999954  44.34999847
H     4.42000008  18.89000130  46.36000061
H     5.23000002  19.07999992  44.78000259
S    15.82999992  15.65000057  48.90999603
C    18.56999969  15.59999943  48.34999847
C    17.28999901  15.88999939  47.94000244
C    16.92000008  16.26000023  46.60999680
C    17.90999985  16.45000076  45.66999817
C    19.22999954  16.09000015  46.03000259
C    20.31999969  15.98999977  45.11000061
C    21.55999947  15.47000027  45.34999847
C    21.90000153  15.19000053  46.70000076
C    20.93000031  15.31000042  47.67000198
C    19.57999992  15.65000057  47.35000229
C    15.47999954  16.38000107  46.42000198
C    14.73999977  16.21000099  47.62000275
C    13.35999966  16.23999977  47.72999573
C    23.36999893  15.03000069  46.98999786
H    23.56119728  15.44071770  47.98138809
H    18.78000069  15.24000072  49.36000061
H    17.67000008  16.73999977  44.65000153
H    19.96999931  16.21000099  44.09999847
H    22.34999847  15.52000046  44.59999847
H    21.14999962  15.06000042  48.69999695
H    12.81000042  16.27000046  48.67000198
H    23.94000053  15.60999966  46.25999832
H    23.75999832  14.01000023  46.81999969
S    12.01000023  17.18000031  50.98999786
C     9.35000038  17.46000099  51.65000153
C    10.54999924  16.86000061  51.95000076
C    10.82999992  16.50000000  53.30999756
C     9.89999962  16.55999947  54.33000183
C     8.60999966  17.01000023  53.95999908
C     7.46999979  16.84000015  54.79999924
C     6.26999950  17.45000076  54.54999924
C     6.05999994  17.98999977  53.25000000
C     7.09000015  18.12999916  52.36000061
C     8.36000061  17.54999924  52.64999771
C    12.25999928  16.36999893  53.52000427
C    13.02000046  16.76000023  52.37999725
C    14.40999985  16.77999878  52.36999893
C     4.63999987  18.38000107  52.90000153
H     4.29082632  17.92393684  51.97362137
H     9.13999939  17.79000092  50.63000107
H    10.14000034  16.17000008  55.31999969
H     7.59999990  16.34000015  55.76000214
H     5.47999954  17.50000000  55.28999710
H     6.97000027  18.53999901  51.36000061
H    14.93999958  17.01000023  51.45000076
H     3.81999993  18.20999908  53.61000061
H     4.57999992  19.47000122  52.77999878
S    15.29000092  15.72000027  56.10000229
C    17.98999977  15.31000042  55.41999817
C    16.75000000  15.80999947  55.08999634
C    16.53000069  16.31999969  53.76999664
C    17.50000000  16.46000099  52.80000305
C    18.81000137  16.09000015  53.18999863
C    19.89999962  16.03000069  52.27000427
C    21.17000198  15.67000008  52.63000107
C    21.38000107  15.15999985  53.94000244
C    20.35000038  15.10000038  54.84000397
C    19.04000092  15.55999947  54.51000214
C    15.08999920  16.44000053  53.54000092
C    14.30999947  16.15999985  54.68999863
C    12.92000008  16.18000031  54.73999786
C    22.72999954  14.55000019  54.27999878
H    23.20633316  15.25383663  54.96250916
H    18.09000015  14.85999966  56.40999603
H    17.19000053  16.69999886  51.79000092
H    19.65999985  16.29999924  51.24000168
H    21.97000122  15.57999992  51.88999939
H    20.36000061  14.48999977  55.75000000
H    12.35000038  16.00000000  55.63999939
H    23.36999893  14.37000084  53.40000153
H    22.65999985  13.60000038  54.80999756
