96

S    12.38999939  16.67000008  44.09999847
C     9.77999973  17.26000023  44.97000122
C    10.98000050  16.61999893  45.17000198
C    11.38000011  16.28999901  46.50000000
C    10.46000004  16.31999969  47.52999878
C     9.11999989  16.72000122  47.29000092
C     8.05000019  16.38000107  48.16999817
C     6.76999998  16.76000023  47.85999680
C     6.44999981  17.46000099  46.65999985
C     7.46000004  17.67000008  45.75000000
C     8.80000019  17.27000046  46.00000000
C    12.81999969  16.25000000  46.65000153
C    13.53000069  16.42000008  45.44000244
C    14.92000008  16.43000031  45.40999985
C     5.01999950  17.86999893  46.38999939
H     4.64206982  17.50633049  45.43448257
H     9.64999962  17.61000061  43.95000076
H    10.62000084  15.70000076  48.40999985
H     8.26000023  15.92000008  49.13000107
H     6.05000019  16.68000031  48.67000198
H     7.27999973  18.06999969  44.75000000
H    15.52000046  16.69000053  44.54000092
H     4.42999983  17.43999863  47.19999695
H     4.86000013  18.96000099  46.42000198
S    16.03000069  15.69000053  49.15999985
C    18.70000076  15.26999950  48.47000122
C    17.43999863  15.67000008  48.09000015
C    17.10000038  15.98999977  46.72999954
C    18.09999847  16.13999939  45.79000092
C    19.40999985  15.77000046  46.17000198
C    20.45999908  15.82999992  45.20999908
C    21.76000214  15.59000015  45.58000183
C    22.10000038  15.19000053  46.88999939
C    21.09000015  15.05000019  47.81999969
C    19.73999977  15.38000011  47.50999832
C    15.65999985  16.04999924  46.55000305
C    14.94999981  15.90999985  47.76000214
C    13.55999947  16.02000046  47.81999969
C    23.55999947  15.21000004  47.29000092
H    23.64516258  15.25258160  48.37583542
H    18.81000137  14.63000107  49.34000015
H    17.80999947  16.39999962  44.77000427
H    20.28000069  16.42000008  44.31000137
H    22.60999870  15.67999935  44.91000366
H    21.31999969  14.78000069  48.85000229
H    13.04999924  15.93000031  48.77999878
H    23.97000122  16.13999939  46.88999939
H    24.11999893  14.39000034  46.81999969
S    11.72000027  16.73999977  50.84999847
C     9.03999996  17.05999947  51.58000183
C    10.32999992  16.72000122  51.93999863
C    10.67000008  16.36000061  53.29000092
C     9.68999958  16.36000061  54.26000214
C     8.40999985  16.87000084  53.94000244
C     7.42000008  16.79000092  54.94999695
C     6.17000008  17.27000046  54.64000320
C     5.84000015  17.75000000  53.34000015
C     6.75000000  17.64999962  52.30999756
C     8.10000038  17.31999969  52.60000229
C    12.10999966  16.36000061  53.52000427
C    12.76000023  16.59000015  52.28000259
C    14.14999962  16.61999893  52.28000259
C     4.44000006  18.22999954  53.04000092
H     4.03271103  17.59405708  52.25400162
H     8.80999947  17.35000038  50.54999924
H     9.81999969  15.93999958  55.26000214
H     7.76999998  16.31999969  55.86999893
H     5.38999987  17.11000061  55.37000275
H     6.44999981  17.71999931  51.26999664
H    14.75000000  16.63999939  51.37000275
H     3.76999998  18.04999924  53.88999939
H     4.39000034  19.27000046  52.68000031
S    15.29999924  16.09000015  56.03000259
C    17.94999886  15.67000008  55.20000076
C    16.69999886  16.17000008  54.93999863
C    16.38000107  16.38000107  53.55999756
C    17.43000031  16.47999954  52.68000031
C    18.76000023  16.07999992  52.95000076
C    19.82999992  15.98999977  52.02000046
C    21.09999847  15.59000015  52.35000229
C    21.38999939  15.21000004  53.68999863
C    20.32999992  15.18000031  54.58000183
C    18.97999954  15.47999954  54.23999786
C    14.93000031  16.50000000  53.43000031
C    14.22000027  16.32999992  54.64000320
C    12.82999992  16.20000076  54.69999695
C    22.79000092  14.80000019  54.08000183
H    23.11723709  15.19837666  55.04037094
H    18.13999939  15.36000061  56.22000122
H    17.21999931  16.48999977  51.60999680
H    19.52000046  16.46000099  51.09000397
H    21.87000084  15.59999943  51.58000183
H    20.42000008  14.89999962  55.61999893
H    12.35000038  16.02000046  55.65999985
H    23.52999878  15.01000023  53.29000092
H    22.86000061  13.71000099  54.10999680
