96

S    12.44999981  16.86000061  44.36999893
C     9.77999973  17.45000076  44.98000336
C    11.02000046  17.02000046  45.40999985
C    11.28000069  16.69000053  46.77999878
C    10.19999981  16.57999992  47.63999939
C     8.93000031  17.05999947  47.25999832
C     7.78999996  17.02000046  48.11999893
C     6.57999992  17.54999924  47.75000000
C     6.40999985  18.13999939  46.46999741
C     7.42000008  17.94999886  45.54999924
C     8.73000050  17.53000069  45.91999817
C    12.69000053  16.40999985  46.98999786
C    13.45999908  16.57999992  45.80999756
C    14.84000015  16.72000122  45.77999878
C     4.99000025  18.45000076  46.04999924
H     4.62833166  18.02450752  45.11391449
H     9.51000023  17.64999962  43.95000076
H    10.29000092  16.27000046  48.68000031
H     8.11999989  16.77999878  49.13000107
H     5.75999975  17.35999870  48.43999863
H     7.21000004  18.25000000  44.52000046
H    15.38000011  16.95000076  44.86000061
H     4.44000006  18.05999947  46.90999985
H     4.88999987  19.54000092  46.00000000
S    15.85999966  15.59999943  49.48999786
C    18.57999992  15.42000008  48.68999863
C    17.27000046  15.76000023  48.41999817
C    16.90000153  16.22999954  47.11999893
C    17.80999947  16.21999931  46.07999802
C    19.13999939  15.80000019  46.31999969
C    20.10000038  15.90000057  45.27000046
C    21.40999985  15.57999992  45.54999924
C    21.80999947  15.01999950  46.79000092
C    20.86999893  14.92000008  47.78999710
C    19.54000092  15.42000008  47.64999771
C    15.46000004  16.39999962  46.98999786
C    14.75999928  16.03000069  48.15999985
C    13.36999989  15.97000027  48.13000107
C    23.28000069  14.70999908  47.00000000
H    23.60112953  15.08822060  47.97052765
H    18.73999977  14.96000099  49.65999985
H    17.51000023  16.40999985  45.05000305
H    19.78999901  16.13000107  44.25000000
H    22.15999985  15.71000004  44.78000259
H    21.15999985  14.50000000  48.74000168
H    12.77999973  15.69000053  49.00000000
H    23.90000153  15.19000053  46.24000168
H    23.45999908  13.63000011  46.97000122
S    16.13000107  12.88000011  52.22999954
C    18.78999901  12.39999962  51.44000244
C    17.45000076  12.39999962  51.13999939
C    16.98999977  12.05000019  49.82999802
C    17.90999985  11.61999893  48.88000107
C    19.29000092  11.64999962  49.20000076
C    20.23999977  11.23999977  48.22000122
C    21.57999992  11.31000042  48.53000259
C    22.04999924  11.78999996  49.78000259
C    21.17000198  12.28000069  50.72000122
C    19.78000069  12.13000107  50.45999908
C    15.55999947  12.22000027  49.65000153
C    15.01999950  12.76000023  50.84999847
C    13.69999981  13.17000008  50.96000290
C    23.52000046  11.59999943  50.07999802
H    23.74614525  11.84027958  51.11885452
H    19.18000031  13.02000046  52.25000000
H    17.50000000  11.23999977  47.95000076
H    19.95000076  10.71000004  47.31999969
H    22.29999924  10.84000015  47.87000275
H    21.52000046  12.57999992  51.70000076
H    13.27000046  13.40000057  51.93000031
H    23.82999802  10.62000084  49.72000122
H    24.11000061  12.18999958  49.36000061
S    12.10000038  12.15999985  47.49000168
C     9.47000027  12.71999931  48.29999924
C    10.81999969  12.76999950  48.55999756
C    11.44000053  13.28999996  49.75000000
C    10.60999966  13.94000053  50.63999939
C     9.22000027  13.99000072  50.37000275
C     8.31999969  14.65000057  51.25999832
C     6.96000004  14.65000057  51.07999802
C     6.37000036  14.09000015  49.92000198
C     7.21000004  13.45999908  49.02999878
C     8.60999966  13.30000019  49.26000214
C    12.86000061  12.98999977  49.85000229
C    13.40000057  12.38999939  48.68000031
C    14.68999958  11.90000057  48.60000229
C     4.99000025  14.42000008  49.38999939
H     4.86129904  14.13399792  48.34609222
H     9.13000011  12.25999928  47.37999725
H    10.92000008  14.34999943  51.59999847
H     8.82999992  15.11000061  52.09999847
H     6.34000015  15.15999985  51.81999969
H     6.80000019  13.23999977  48.04999924
H    14.98999977  11.49000072  47.63999939
H     4.85000038  15.51000023  49.41999817
H     4.23999977  13.94000053  50.04000092
