96

S    12.36999989  16.95000076  44.38999939
C     9.78999996  17.61000061  45.17000198
C    10.95999908  16.95000076  45.47000122
C    11.30000019  16.45000076  46.77000046
C    10.31999969  16.36999893  47.74000168
C     9.03999996  16.88999939  47.43000031
C     7.88999987  16.80999947  48.26000214
C     6.60000038  17.14999962  47.93000031
C     6.37000036  17.72999954  46.65000153
C     7.46000004  17.92000008  45.83000183
C     8.78999996  17.54999924  46.17000198
C    12.74000072  16.39999962  46.95000076
C    13.45999908  16.59000015  45.73999786
C    14.85000038  16.59000015  45.66999817
C     4.94999981  18.11000061  46.30000305
H     4.61441851  17.46739578  45.48603439
H     9.61000061  18.15999985  44.25000000
H    10.54999924  15.77000046  48.61999893
H     8.09000015  16.36000061  49.22999954
H     5.75000000  16.94000053  48.57999802
H     7.23000002  18.27999878  44.82999802
H    15.39999962  16.64999962  44.73999786
H     4.26000023  17.94000053  47.12999725
H     4.92000008  19.17000008  46.00999832
S    15.88999939  15.59000015  49.38999939
C    18.51000023  15.10000038  48.55999756
C    17.27000046  15.62999916  48.29000092
C    16.97000122  16.14999962  46.98999786
C    17.97000122  16.11999893  46.04000092
C    19.27999878  15.64000034  46.26999664
C    20.35000038  15.80000019  45.34999847
C    21.56999969  15.22999954  45.65999985
C    21.84000015  14.73000050  46.95999908
C    20.86000061  14.68000031  47.93000031
C    19.55000114  15.11000061  47.57999802
C    15.52999973  16.32999992  46.86999893
C    14.80999947  16.07999992  48.06999969
C    13.43999958  16.25000000  48.15000153
C    23.23999786  14.32000065  47.36000061
H    23.55404663  14.78393364  48.29500961
H    18.79999924  14.73000050  49.54000092
H    17.68000031  16.44000053  45.04000092
H    20.12000084  16.36000061  44.45000076
H    22.37999916  15.26000023  44.93000031
H    21.01000023  14.26000023  48.92000198
H    12.84999943  15.84000015  48.96999741
H    23.88999939  14.65999985  46.55000305
H    23.22999954  13.22999954  47.48000336
S    12.02999973  17.51000023  50.93999863
C     9.26000023  17.60000038  51.52999878
C    10.54999924  17.30999947  51.90000153
C    10.92000008  16.98999977  53.25000000
C     9.88000011  16.93000031  54.15999985
C     8.52000046  17.15999985  53.87000275
C     7.55000019  17.00000000  54.89999771
C     6.25000000  17.27000046  54.52000046
C     5.88999987  17.72999954  53.22000122
C     6.86999989  17.86999893  52.27000427
C     8.23999977  17.53000069  52.50999832
C    12.34000015  16.79000092  53.48999786
C    13.07000065  17.02999878  52.29000092
C    14.45000076  16.97000122  52.22000122
C     4.44999981  18.07999992  52.93000031
H     4.07181168  17.58050728  52.03804779
H     8.97000027  17.86999893  50.51000214
H    10.14000034  16.75000000  55.20000076
H     7.88999987  16.61000061  55.84999847
H     5.45000029  17.35999870  55.25000000
H     6.72999954  18.32999992  51.30000305
H    15.00000000  17.22999954  51.31000137
H     3.81999993  17.79000092  53.77999878
H     4.51999998  19.17000008  52.83000183
S    15.48999977  15.84000015  55.93000031
C    18.06999969  15.18000031  55.14999771
C    16.84000015  15.67999935  54.79000092
C    16.48999977  16.13999939  53.47999954
C    17.47999954  16.26000023  52.51999664
C    18.78000069  15.80999947  52.85999680
C    19.76000023  15.72999954  51.83000183
C    20.97999954  15.24000072  52.21000290
C    21.35000038  14.80999947  53.50999832
C    20.39999962  14.85999966  54.50000000
C    19.07999992  15.26999950  54.15999985
C    15.11000061  16.57999992  53.39000320
C    14.42999935  16.40999985  54.62999725
C    13.03999996  16.52000046  54.66999817
C    22.79999924  14.51000023  53.85000229
H    23.07810020  15.14463615  54.69142914
H    18.27999878  14.82999992  56.16000366
H    17.21999931  16.77999878  51.60999680
H    19.52000046  16.17000008  50.86999893
H    21.65999985  15.29000092  51.36000061
H    20.75000000  14.61999989  55.50000000
H    12.57999992  16.27000046  55.61999893
H    23.52000046  14.61999989  53.02999878
H    22.79000092  13.47000027  54.18000031
