96

S    12.51999950  17.04000092  44.16999817
C     9.84000015  17.38999939  44.93000031
C    11.13000011  17.06999969  45.27000046
C    11.46999931  16.62999916  46.59999847
C    10.48999977  16.62999916  47.56999969
C     9.17000008  17.01000023  47.22999954
C     8.10000038  17.05000114  48.15999985
C     6.80000019  17.34000015  47.80000305
C     6.44999981  17.71000099  46.47999573
C     7.44999981  17.65999985  45.54000092
C     8.80000019  17.42000008  45.90000153
C    12.90999985  16.44000053  46.73999786
C    13.60000038  16.64999962  45.52000046
C    14.98999977  16.56999969  45.47999954
C     5.01999950  17.79999924  45.98999786
H     4.71395350  17.13096809  45.18573761
H     9.55000019  17.61999893  43.90999603
H    10.72999954  16.32999992  48.59000397
H     8.38999939  16.88999939  49.20000076
H     6.01999998  17.20999908  48.54000092
H     7.17000008  17.64000130  44.48999786
H    15.50000000  16.57999992  44.52000046
H     4.39000034  17.65999985  46.86999893
H     4.92000008  18.86999893  45.75000000
S    16.13000107  15.70000076  49.20999908
C    18.78000069  15.31999969  48.50999832
C    17.51000023  15.65999985  48.09999847
C    17.14999962  16.03999901  46.77000046
C    18.15999985  16.01000023  45.83000183
C    19.50000000  15.76000023  46.19999695
C    20.52999878  15.88000107  45.22999573
C    21.77999878  15.39000034  45.54000092
C    22.13999939  14.96000099  46.84000015
C    21.15999985  14.96000099  47.81000137
C    19.81999969  15.36999893  47.55000305
C    15.72999954  16.32999992  46.63999939
C    15.05000019  16.17000008  47.87000275
C    13.66000080  16.15999985  47.88999939
C    23.57999992  14.75999928  47.27000427
H    23.65827751  14.96636868  48.33742523
H    18.96000099  15.06999969  49.54999924
H    17.87999916  16.13999939  44.79000092
H    20.29000092  15.97000027  44.16999817
H    22.50999832  15.31000042  44.73999786
H    21.47999954  14.77000046  48.82999802
H    13.14000034  15.85999966  48.80000305
H    24.27000046  15.39000034  46.70000076
H    23.90999985  13.73000050  47.04999924
S    15.93000031  13.36999989  52.04000092
C    18.53000069  12.51999950  51.43000031
C    17.20000076  12.56999969  51.09000397
C    16.68000031  12.15000057  49.82999802
C    17.54999924  11.61000061  48.88999939
C    18.93000031  11.56999969  49.22999954
C    19.88999939  11.00999928  48.34000015
C    21.22999954  10.84000015  48.60000229
C    21.68000031  11.10999966  49.92000198
C    20.84000015  11.76000023  50.79000092
C    19.45999908  11.97999954  50.50000000
C    15.29999924  12.51999950  49.56999969
C    14.75999928  13.10999966  50.73999786
C    13.43999958  13.50999928  50.90999985
C    23.12999916  10.88000107  50.27999878
H    23.45721626  11.17876339  51.27587509
H    18.75000000  12.72999954  52.47000122
H    17.20999908  11.28999901  47.90999985
H    19.52999878  10.70000076  47.36000061
H    21.93000031  10.39999962  47.88999939
H    21.28000069  12.09000015  51.72000122
H    13.12000084  13.86000061  51.88000107
H    23.29000092   9.80000019  50.14999771
H    23.65999985  11.54999924  49.59999847
S    11.90999985  12.64999962  47.32999802
C     9.27999973  13.14000034  48.27000046
C    10.64000034  13.26000023  48.40000153
C    11.18999958  13.63999939  49.66999817
C    10.36000061  14.11000061  50.66999817
C     8.96000004  14.14000034  50.41999817
C     8.09000015  14.61999989  51.43000031
C     6.75000000  14.78000069  51.18999863
C     6.15999985  14.45000076  49.93999863
C     6.97000027  13.88000011  48.96999741
C     8.34999943  13.67000008  49.20000076
C    12.61000061  13.35999966  49.79000092
C    13.14000034  12.76000023  48.61000061
C    14.45000076  12.32999992  48.47000122
C     4.69000006  14.56999969  49.61999893
H     4.41308355  14.10137177  48.67564392
H     8.85000038  12.71000004  47.36000061
H    10.71000004  14.42999935  51.65000153
H     8.34999943  15.01000023  52.42000198
H     6.19000006  15.19999981  52.02000046
H     6.63999987  13.73000050  47.95000076
H    14.75999928  11.73999977  47.62000275
H     4.55000019  15.65000057  49.43999863
H     4.11000013  14.21000004  50.47999954
