96

S    11.69999981  16.40999985  44.55999756
C     9.11999989  17.07999992  45.50000000
C    10.34999943  16.50000000  45.70999908
C    10.69000053  16.13999939  47.04999924
C     9.75000000  16.17000008  48.06000137
C     8.43000031  16.57999992  47.77999878
C     7.40000010  16.46000099  48.75000000
C     6.10000038  16.75000000  48.39000320
C     5.78000021  17.30999947  47.12999725
C     6.76999998  17.53000069  46.19999695
C     8.10999966  17.13000107  46.47999573
C    12.13000107  15.95000076  47.15000153
C    12.79999924  16.01000023  45.89000320
C    14.18000031  16.03000069  45.72000122
C     4.32000017  17.50000000  46.79000092
H     3.99938488  16.83027077  45.99202347
H     8.75000000  17.43000031  44.52999878
H     9.96999931  15.92000008  49.09999847
H     7.50999975  15.81999969  49.61999893
H     5.32000017  16.44000053  49.08000183
H     6.61999989  18.02000046  45.24000168
H    14.55000019  15.97000027  44.71000290
H     3.61000013  17.53999901  47.63000107
H     4.44999981  18.52000046  46.40999603
S    15.51000023  15.73999977  49.45000076
C    18.15000153  15.36999893  48.72000122
C    16.90000153  15.81999969  48.36000061
C    16.47999954  16.07999992  47.02000046
C    17.46999931  16.09000015  46.04999924
C    18.81000137  15.88000107  46.43000031
C    19.93000031  15.77999973  45.54999924
C    21.21999931  15.42000008  45.84999847
C    21.55999947  15.00000000  47.15999985
C    20.51000214  15.01999950  48.04999924
C    19.18000031  15.44999981  47.75000000
C    15.03999901  16.03999901  46.83000183
C    14.39000034  15.82999992  48.08000183
C    13.01000023  15.77999973  48.22999954
C    22.95999908  14.68000031  47.62000275
H    23.23021698  15.13510323  48.57287216
H    18.27999878  14.73000050  49.59000015
H    17.27000046  16.13999939  44.98000336
H    19.81999969  15.88999939  44.47000122
H    21.98999786  15.44999981  45.07999802
H    20.69000053  14.73000050  49.08000183
H    12.76000023  15.77000046  49.27999878
H    23.69999886  14.93999958  46.84999847
H    22.95999908  13.57999992  47.69000244
S    15.90999985  13.25000000  52.35000229
C    18.55999947  12.69999981  51.63999939
C    17.22999954  12.71000004  51.29000092
C    16.69999886  12.23000050  50.05000305
C    17.61000061  11.72999954  49.13999939
C    18.97999954  11.61999893  49.45999908
C    19.88000107  11.00000000  48.54999924
C    21.22999954  11.06999969  48.81999969
C    21.68000031  11.49000072  50.10000229
C    20.85000038  12.05999947  51.04000092
C    19.45999908  12.10000038  50.72999954
C    15.26999950  12.48000050  49.92000198
C    14.70000076  13.07000065  51.06999969
C    13.35000038  13.38000107  51.25999832
C    23.16999817  11.43000031  50.37000275
H    23.50561333  11.82987785  51.32685089
H    18.84000015  13.12000084  52.60000229
H    17.23999977  11.47999954  48.13999939
H    19.40999985  10.47999954  47.71999741
H    21.88999939  10.52999973  48.15000153
H    21.17000198  12.55000019  51.95000076
H    12.92000008  13.78000069  52.18000031
H    23.36999893  10.36000061  50.27999878
H    23.75000000  11.84000015  49.52999878
S    11.80999947  12.30999947  47.74000168
C     9.18000031  12.64000034  48.68000031
C    10.53999996  12.74000072  48.89999771
C    11.13000011  13.27999973  50.08999634
C    10.25000000  13.75000000  51.04000092
C     8.85000038  13.56999969  50.90000153
C     7.90999985  13.94000053  51.90000153
C     6.54999971  13.89000034  51.65000153
C     6.00000000  13.36999989  50.45999908
C     6.86999989  12.94999981  49.47000122
C     8.27000046  13.03999996  49.69999695
C    12.56999969  13.10999966  50.13000107
C    13.10999966  12.67000008  48.89999771
C    14.45000076  12.30000019  48.80000305
C     4.51000023  13.40000057  50.20000076
H     4.23966837  13.14389610  49.17558289
H     8.82000065  12.20999908  47.75000000
H    10.71000004  14.18000031  51.93000031
H     8.34999943  14.48999977  52.71999741
H     5.98000002  14.25000000  52.50000000
H     6.40999985  12.75000000  48.50999832
H    14.81999969  11.92999935  47.84999847
H     4.09999990  14.34999943  50.56000137
H     4.05999994  12.69999981  50.90000153
