96

S    12.25999928  16.87999916  44.40999985
C     9.61000061  17.46000099  45.30000305
C    10.88999939  16.98999977  45.52999878
C    11.21000099  16.46999931  46.81999969
C    10.18000031  16.18999863  47.70000076
C     8.85000038  16.64999962  47.56000137
C     7.76000023  16.42000008  48.44999695
C     6.48000002  16.77999878  48.11000061
C     6.23000050  17.53000069  46.93000031
C     7.30000019  17.79999924  46.10000229
C     8.60999966  17.28000069  46.29000092
C    12.63000011  16.14999962  46.90000153
C    13.32999992  16.25000000  45.66999817
C    14.70999908  16.21999931  45.56999969
C     4.82999992  17.86000061  46.45999908
H     4.55390835  17.28658104  45.57509232
H     9.32999992  17.76000023  44.29000092
H    10.38000011  15.46000004  48.48999786
H     7.97999954  15.85999966  49.36000061
H     5.65000010  16.42000008  48.70999908
H     7.07999992  18.39999962  45.22999573
H    15.14999962  16.46000099  44.59999847
H     4.09999990  17.67000008  47.25000000
H     4.90999985  18.94000053  46.26999664
S    15.88999939  15.52999973  49.26000214
C    18.53000069  14.86999989  48.56999969
C    17.28999901  15.31999969  48.18999863
C    16.87000084  15.67000008  46.86000061
C    17.86999893  15.71000004  45.90000153
C    19.19999886  15.34999943  46.20999908
C    20.17000008  15.29999924  45.17000198
C    21.42000008  14.81999969  45.47000122
C    21.83000183  14.55999947  46.81000137
C    20.86000061  14.48999977  47.77999878
C    19.52000046  14.92000008  47.55000305
C    15.44999981  15.93999958  46.72999954
C    14.73999977  15.88999939  47.95999908
C    13.35999966  15.97000027  48.08000183
C    23.21000099  14.06000042  47.14000320
H    23.50819778  14.60669804  48.03459930
H    18.73999977  14.57999992  49.59000015
H    17.53999901  15.78999996  44.86999893
H    20.03000069  15.71000004  44.16999817
H    22.17000008  14.85999966  44.68000031
H    21.09000015  14.06999969  48.75000000
H    12.77999973  15.85999966  48.99000168
H    23.88000107  14.15999985  46.27999878
H    23.16999817  12.96000004  47.21000290
S    12.25000000  17.07999992  51.04000092
C     9.59000015  17.59000015  51.81999969
C    10.84000015  17.11000061  52.11000061
C    11.18000031  16.69000053  53.43999863
C    10.15999985  16.61999893  54.36000061
C     8.85000038  17.10000038  54.08000183
C     7.82000017  16.97999954  55.05000305
C     6.65000010  17.67000008  54.87999725
C     6.32999992  18.22999954  53.61000061
C     7.28999996  18.29000092  52.63000107
C     8.57999992  17.71999931  52.81000137
C    12.61999989  16.54999924  53.62999725
C    13.31999969  16.82999992  52.43000031
C    14.70999908  16.70999908  52.36000061
C     4.88999987  18.53000069  53.27000046
H     4.52660465  17.95996857  52.41495132
H     9.30000019  17.85000038  50.79999924
H    10.31000042  16.02000046  55.25000000
H     8.00000000  16.55999947  56.04000092
H     5.86999989  17.72999954  55.63999939
H     7.07999992  18.68000031  51.63000107
H    15.31999969  16.84000015  51.47999573
H     4.30999994  18.17000008  54.12000275
H     4.76999998  19.62000084  53.15000153
S    15.69000053  15.43000031  56.05999756
C    18.40999985  15.22999954  55.27000046
C    17.12000084  15.64000034  55.01999664
C    16.81999969  16.10000038  53.69999695
C    17.75000000  16.29999924  52.70000076
C    19.04000092  15.77999973  52.95000076
C    19.96000099  15.47000027  51.90000153
C    21.27000046  15.14000034  52.14000320
C    21.71999931  15.00000000  53.47999954
C    20.76000023  14.93999958  54.47000122
C    19.38999939  15.25000000  54.23999786
C    15.39999962  16.36999893  53.53000259
C    14.72000027  16.13999939  54.75999832
C    13.32999992  16.18999863  54.78000259
C    23.15999985  14.77000046  53.86000061
H    23.43065071  15.19022083  54.82863998
H    18.63000107  14.80999947  56.24000168
H    17.47999954  16.59000015  51.69000244
H    19.78000069  15.84000015  50.90000153
H    21.96000099  15.08999920  51.30000305
H    21.05999947  14.80999947  55.51000214
H    12.77999973  15.84000015  55.65000153
H    23.85999870  15.07999992  53.06999969
H    23.21000099  13.68000031  53.99000168
