96

S    12.51000023  17.15999985  44.00000000
C     9.80000019  17.59000015  44.65999985
C    11.03999996  17.09000015  44.99000168
C    11.39000034  16.63999939  46.31000137
C    10.39000034  16.54999924  47.25999832
C     9.06000042  16.92000008  46.93000031
C     8.01999950  16.79999924  47.88999939
C     6.72999954  17.12000084  47.51999664
C     6.43000031  17.67000008  46.25000000
C     7.44999981  17.86000061  45.34000015
C     8.76000023  17.38999939  45.61000061
C    12.81999969  16.65999985  46.55000305
C    13.59000015  16.97999954  45.38999939
C    14.98000050  16.95000076  45.38999939
C     5.03999996  18.22000122  45.96000290
H     4.62815952  17.58093643  45.17892456
H     9.61000061  18.19000053  43.77999878
H    10.65999985  15.98000050  48.15000153
H     8.25000000  16.43000031  48.88000107
H     6.05999994  17.09000015  48.36999893
H     7.22000027  18.31999969  44.38000107
H    15.52000046  17.11000061  44.47000122
H     4.46999979  18.18000031  46.88999939
H     5.10999966  19.23999977  45.56000137
S    15.90999985  15.78999996  49.06000137
C    18.59000015  15.38000011  48.43000031
C    17.35999870  15.86999989  48.04999924
C    17.09000015  16.39000130  46.75000000
C    18.13999939  16.43000031  45.86000061
C    19.38999939  15.82999992  46.14999771
C    20.36000061  15.57999992  45.13000107
C    21.56999969  15.03000069  45.47999954
C    21.90999985  14.75000000  46.83000183
C    20.93000031  14.82999992  47.78999710
C    19.63000107  15.31000042  47.47000122
C    15.65999985  16.65999985  46.58000183
C    14.89999962  16.39999962  47.74000168
C    13.50999928  16.39000130  47.74000168
C    23.26000023  14.28999996  47.32999802
H    23.49437332  14.73744011  48.29589844
H    18.63000107  14.73999977  49.31000137
H    17.89999962  16.79999924  44.86999893
H    20.10999870  15.85999966  44.10999680
H    22.29999924  14.91000080  44.68000031
H    21.14999962  14.48999977  48.80000305
H    13.07000065  16.07999992  48.68000031
H    24.01000023  14.70999908  46.65000153
H    23.23999786  13.19000053  47.43000031
S    16.01000023  13.19000053  52.08000183
C    18.60999870  12.61999989  51.37000275
C    17.28000069  12.61999989  50.98999786
C    16.79000092  12.18000031  49.72000122
C    17.69000053  11.61000061  48.83999634
C    19.05999947  11.54000092  49.19000244
C    19.97999954  10.84000015  48.36999893
C    21.31000137  10.86999989  48.68999863
C    21.80000114  11.36999989  49.93000031
C    20.90999985  11.98999977  50.77000046
C    19.52999878  12.10000038  50.43000031
C    15.38000011  12.51999950  49.59999847
C    14.81999969  13.07999992  50.77000046
C    13.57999992  13.71000099  50.75000000
C    23.26000023  11.21999931  50.28999710
H    23.57302856  11.45477104  51.30734253
H    19.01000023  13.02000046  52.29999924
H    17.43999863  11.42000008  47.80000305
H    19.63999939  10.32999992  47.45999908
H    22.01999855  10.51000023  47.95999908
H    21.11000061  12.30999947  51.79000092
H    13.22999954  14.27000046  51.60999680
H    23.64000130  10.24000072  49.95999908
H    23.81000137  11.87999916  49.61000061
S    11.97000027  12.30999947  47.37999725
C     9.36999989  12.89999962  48.18999863
C    10.72000027  12.97000027  48.44999695
C    11.26999950  13.38000107  49.71000290
C    10.39999962  13.80000019  50.70000076
C     9.02000046  13.86999989  50.37000275
C     8.15999985  14.39000034  51.38999939
C     6.81999969  14.40000057  51.09000397
C     6.25999975  14.13000011  49.81999969
C     7.09999990  13.75000000  48.79000092
C     8.47999954  13.55000019  49.08000183
C    12.71999931  13.36999989  49.68999863
C    13.25000000  12.75000000  48.53000259
C    14.57999992  12.36999989  48.44999695
C     4.79999971  14.37999916  49.51000214
H     4.63666248  14.21666241  48.44475937
H     8.89999962  12.58999920  47.25999832
H    10.73999977  13.97999954  51.70999908
H     8.51000023  14.85000038  52.29999924
H     6.12999964  14.84000015  51.79999924
H     6.76000023  13.57999992  47.77000046
H    14.98000050  12.02999973  47.50000000
H     4.53000021  15.40999985  49.77000427
H     4.18000031  13.71000099  50.11000061
