96

S    12.61000061  16.92000008  44.09999847
C     9.96999931  17.34000015  44.81999969
C    11.21000099  16.86000061  45.19000244
C    11.49000072  16.43000031  46.52000046
C    10.44999981  16.34000015  47.43000031
C     9.15000057  16.68000031  47.00000000
C     8.15999985  16.76000023  48.02000046
C     6.90000010  17.19000053  47.69000244
C     6.56000042  17.67000008  46.39999771
C     7.55999994  17.72999954  45.45000076
C     8.85999966  17.20999908  45.68999863
C    12.90999985  16.15999985  46.68000031
C    13.61999989  16.43000031  45.47999954
C    15.00000000  16.53000069  45.34999847
C     5.10999966  18.01000023  46.18999863
H     4.70372200  17.51819038  45.30616379
H     9.70000076  17.81999969  43.88000107
H    10.60999966  16.15999985  48.48999786
H     8.47000027  16.76000023  49.06000137
H     6.19000006  17.42000008  48.47999954
H     7.46000004  18.15999985  44.45000076
H    15.44000053  16.86000061  44.41999817
H     4.48000002  17.82999992  47.06999969
H     5.00000000  19.07999992  45.96000290
S    16.22999954  15.55999947  49.02000046
C    18.78999901  14.96999931  48.09999847
C    17.56999969  15.55999947  47.85999680
C    17.15999985  15.93000031  46.53999710
C    18.13999939  15.88000107  45.56000137
C    19.45999908  15.44999981  45.79999924
C    20.48000145  15.48999977  44.79999924
C    21.77999878  15.14999962  45.08999634
C    22.04999924  14.46000004  46.30000305
C    21.05999947  14.29999924  47.25000000
C    19.76000023  14.85999966  47.06999969
C    15.72999954  16.15999985  46.49000168
C    15.07999992  16.01000023  47.75000000
C    13.69999981  15.93999958  47.81999969
C    23.47999954  14.25000000  46.75000000
H    23.64393997  14.74894810  47.70513153
H    18.96000099  14.46000004  49.05000305
H    17.86999893  16.14999962  44.54000092
H    20.34000015  15.92000008  43.81000137
H    22.53000069  15.39999962  44.34999847
H    21.38000107  14.07999992  48.27000046
H    13.15999985  15.80999947  48.75999832
H    24.30000114  14.59000015  46.10000229
H    23.64999962  13.17999935  46.90000153
S    12.05999947  17.45000076  51.00999832
C     9.43000031  17.71999931  51.84999847
C    10.70000076  17.28000069  52.14000320
C    11.09000015  16.93000031  53.47000122
C    10.13000011  16.94000053  54.45999908
C     8.76999950  17.26000023  54.19000244
C     7.69999981  17.14999962  55.12000275
C     6.39999962  17.52000046  54.84000397
C     6.11999989  18.05999947  53.54999924
C     7.11000013  18.12000084  52.60000229
C     8.45000076  17.72999954  52.87000275
C    12.53999901  16.86000061  53.59000397
C    13.17000008  17.11000061  52.35000229
C    14.55000019  16.97000122  52.19999695
C     4.67999983  18.38000107  53.22999954
H     4.25302315  17.71106911  52.48279190
H     9.28999996  18.07999992  50.83000183
H    10.44999981  16.55999947  55.41999817
H     7.97999954  16.59000015  56.00999832
H     5.61999989  17.22999954  55.52999878
H     6.80999994  18.55999947  51.65000153
H    14.94999981  17.12000084  51.20999908
H     4.09999990  18.22000122  54.15000153
H     4.48000002  19.44000053  53.04000092
S    15.77999973  15.86999989  55.84000015
C    18.43000031  15.67000008  55.04000092
C    17.13000107  15.98999977  54.69999695
C    16.79999924  16.45000076  53.39000320
C    17.75000000  16.29999924  52.39999771
C    19.05999947  15.84000015  52.70999908
C    20.02000046  15.72000027  51.66999817
C    21.28000069  15.26000023  51.98999786
C    21.70000076  15.03000069  53.31999969
C    20.79000092  15.21000004  54.34999847
C    19.44000053  15.52999973  54.06000137
C    15.36000061  16.69000053  53.30999756
C    14.72000027  16.46999931  54.54999924
C    13.34000015  16.55999947  54.69999695
C    23.11000061  14.68000031  53.73000336
H    23.35963440  14.97243023  54.74993896
H    18.65999985  15.26000023  56.03000259
H    17.52000046  16.31999969  51.33999634
H    19.70000076  15.93999958  50.65000153
H    22.03000069  15.10000038  51.22000122
H    21.12999916  15.06000042  55.37000275
H    12.76999950  16.42000008  55.61000061
H    23.77000046  15.25000000  53.06000137
H    23.31999969  13.63999939  53.46000290
