96

S    12.10000038  17.29999924  44.41999817
C     9.35000038  17.32999992  44.99000168
C    10.62999916  17.02000046  45.38000107
C    10.93999958  16.56999969  46.70999908
C     9.92000008  16.22999954  47.56999969
C     8.60000038  16.56999969  47.21000290
C     7.55000019  16.51000023  48.18000031
C     6.28999996  16.90000153  47.80000305
C     6.00000000  17.43999863  46.52000046
C     7.00000000  17.67000008  45.61000061
C     8.30999947  17.20000076  45.94999695
C    12.36999989  16.44000053  46.93000031
C    13.12000084  16.87999916  45.80999756
C    14.51000023  16.79999924  45.77999878
C     4.59999990  17.93000031  46.18000031
H     4.13597631  17.55878067  45.26622772
H     9.26000023  17.93000031  44.09000015
H    10.26000023  16.05999947  48.59000397
H     7.86999989  16.50000000  49.22000122
H     5.55000019  16.87999916  48.59000397
H     6.67999983  18.18000031  44.71000290
H    14.98999977  17.05000114  44.84000397
H     3.91000009  17.94000053  47.04000092
H     4.76999998  19.01000023  46.20999908
S    15.51000023  15.59999943  49.43000031
C    18.26000023  15.40999985  48.82999802
C    16.97999954  15.72000027  48.43999863
C    16.63999939  16.17000008  47.11999893
C    17.69000053  16.42000008  46.25999832
C    18.98999977  15.95999908  46.58000183
C    20.05000114  15.95999908  45.61999893
C    21.31000137  15.51000023  45.90999985
C    21.56999969  15.05000019  47.22000122
C    20.66999817  15.19999981  48.25000000
C    19.31999969  15.51000023  47.90000153
C    15.21000004  16.31999969  46.90000153
C    14.47000027  15.88000107  48.02000046
C    13.07999992  15.95000076  48.04000092
C    22.95999908  14.60999966  47.63000107
H    23.21602821  15.05805111  48.59010315
H    18.47999954  15.05000019  49.82999802
H    17.47999954  16.77000046  45.25000000
H    20.06000137  16.52000046  44.68999863
H    22.06000137  15.55999947  45.12000275
H    20.94000053  14.92000008  49.26000214
H    12.50000000  15.93999958  48.95999908
H    23.54000092  14.93000031  46.75000000
H    23.06999969  13.52000046  47.70999908
S    16.06999969  13.23999977  52.63000107
C    18.63999939  12.53000069  51.86000061
C    17.30999947  12.64000034  51.52000046
C    16.82999992  12.35999966  50.20000076
C    17.67000008  11.75000000  49.27999878
C    19.05999947  11.67000008  49.52999878
C    19.96000099  11.21000099  48.53000259
C    21.28999901  11.00999928  48.81999969
C    21.76000214  11.36000061  50.12000275
C    20.90999985  11.92999935  51.04000092
C    19.51000023  12.11999989  50.81999969
C    15.36999893  12.41000080  50.14999771
C    14.88000011  13.02999973  51.32999802
C    13.53000069  13.32999992  51.40999603
C    23.18000031  11.07999992  50.56000137
H    23.45088196  11.65740490  51.44392776
H    18.93000031  12.86999893  52.84999847
H    17.29999924  11.25000000  48.40000153
H    19.50000000  10.98999977  47.56999969
H    21.94999886  10.71000004  48.01000214
H    21.27000046  12.30000019  51.98999786
H    13.05999947  13.82999992  52.25999832
H    23.31999969  10.00000000  50.73999786
H    23.77000046  11.42000008  49.71000290
S    11.96000004  12.22000027  47.90000153
C     9.40999985  12.88000011  48.68999863
C    10.75000000  12.89000034  49.01000214
C    11.25000000  13.27000046  50.28999710
C    10.31000042  13.76999950  51.18000031
C     8.93999958  13.89000034  50.84999847
C     8.00000000  14.51000023  51.72000122
C     6.67000008  14.68999958  51.39999771
C     6.21000004  14.15999985  50.17000198
C     7.07000017  13.55999947  49.27000046
C     8.45000076  13.42000008  49.58000183
C    12.69999981  13.14000034  50.30000305
C    13.21000004  12.55000019  49.10999680
C    14.53999996  12.15999985  49.06000137
C     4.75000000  14.28999996  49.80999756
H     4.50137949  13.83537865  48.85103607
H     8.97999954  12.36999989  47.83000183
H    10.73999977  14.06000042  52.12999725
H     8.46000004  14.80999947  52.65999603
H     5.98999977  15.31000042  51.97000122
H     6.71000004  13.20000076  48.30999756
H    14.98999977  11.85999966  48.11000061
H     4.48000002  15.34999943  49.68999863
H     4.07999992  13.83999920  50.54999924
