96

S    12.20999908  17.19000053  44.13999939
C     9.52000046  17.48999977  45.00000000
C    10.80000019  17.02999878  45.20999908
C    11.16000080  16.55999947  46.51000214
C    10.31000042  16.46000099  47.60000229
C     8.97999954  16.90000153  47.37999725
C     7.96000004  16.69000053  48.34999847
C     6.65999985  16.95999908  47.97999954
C     6.30000019  17.73999977  46.86000061
C     7.30999994  17.97999954  45.94999695
C     8.61999989  17.43999863  46.10000229
C    12.58999920  16.31999969  46.65000153
C    13.27999973  16.69999886  45.47000122
C    14.67000008  16.70999908  45.40000153
C     4.86999989  18.11000061  46.53999710
H     4.54334688  17.76204300  45.56003571
H     9.23999977  17.97000122  44.06000137
H    10.65999985  16.03000069  48.54000092
H     8.23000050  16.36999893  49.34999847
H     5.78000021  16.84999847  48.60000229
H     7.11999989  18.38999939  44.95999908
H    15.21000004  16.90999985  44.47999954
H     4.23999977  17.81999969  47.38999939
H     4.77999973  19.19999886  46.60999680
S    15.64000034  15.46000004  49.06000137
C    18.38000107  15.29000092  48.34000015
C    17.09000015  15.69000053  48.06000137
C    16.79999924  16.28000069  46.79000092
C    17.79999924  16.50000000  45.86999893
C    19.12999916  16.09000015  46.13999939
C    20.22000122  16.26000023  45.24000168
C    21.47999954  15.92000008  45.65999985
C    21.78999901  15.32999992  46.90999985
C    20.76000023  15.14999962  47.80000305
C    19.43000031  15.50000000  47.42000198
C    15.36000061  16.36999893  46.56999969
C    14.60999966  15.95000076  47.70000076
C    13.22999954  15.90999985  47.83000183
C    23.19000053  14.80999947  47.15999985
H    23.46155739  15.16730976  48.15332031
H    18.56999969  14.81999969  49.29999924
H    17.59000015  16.84000015  44.86000061
H    19.97999954  16.82999992  44.34999847
H    22.26000023  16.13999939  44.93999863
H    20.88999939  14.60000038  48.73000336
H    12.77999973  15.84000015  48.81000137
H    23.82999802  15.14000034  46.32999802
H    23.23999786  13.71000099  47.21000290
S    11.90000057  17.21999931  50.87999725
C     9.36999989  18.02000046  51.84000015
C    10.59999943  17.46000099  52.06999969
C    10.93000031  16.81999969  53.30999756
C     9.96000004  16.75000000  54.29000092
C     8.63000011  17.14999962  54.05000305
C     7.50000000  16.80999947  54.84000397
C     6.19999981  17.10000038  54.50000000
C     5.98000002  17.98999977  53.40999985
C     7.03999996  18.37000084  52.63000107
C     8.36000061  17.87999916  52.84000015
C    12.38000011  16.64999962  53.40000153
C    13.05999947  16.86000061  52.16999817
C    14.44000053  16.77999878  52.08000183
C     4.59000015  18.35000038  52.94000244
H     4.27634859  17.77259636  52.07033157
H     9.13000011  18.50000000  50.90000153
H    10.18000031  16.51000023  55.33000183
H     7.68000031  16.23999977  55.75000000
H     5.40999985  16.68000031  55.11000061
H     6.85999966  19.01000023  51.77000046
H    14.81999969  17.01000023  51.07999802
H     3.77999997  18.13999939  53.64999771
H     4.50000000  19.44000053  52.84000015
S    15.65999985  15.88999939  55.77999878
C    18.29000092  15.43000031  54.95999908
C    17.02000046  15.84000015  54.62999725
C    16.61999893  16.18999863  53.29999924
C    17.61000061  16.23999977  52.32999802
C    18.92000008  15.77999973  52.57999802
C    19.96999931  16.03000069  51.65000153
C    21.25000000  15.62000084  51.91999817
C    21.53000069  15.03999901  53.18000031
C    20.59000015  15.06999969  54.19000244
C    19.22000122  15.27999973  53.89999771
C    15.19000053  16.42000008  53.20000076
C    14.55000019  16.34000015  54.47000122
C    13.17000008  16.35000038  54.52000046
C    22.96999931  14.96999931  53.62999725
H    23.12681580  15.49747086  54.57089233
H    18.59000015  15.19999981  55.97999954
H    17.29999924  16.67000008  51.38000107
H    19.63999939  16.60000038  50.77999878
H    22.13000107  15.95000076  51.36000061
H    20.85000038  15.13000011  55.25000000
H    12.74000072  16.13000107  55.50000000
H    23.57999992  15.42000008  52.83000183
H    23.29000092  13.93000031  53.74000168
