96

S    12.13999939  16.32999992  44.29000092
C     9.43000031  16.61999893  45.02999878
C    10.71000004  16.25000000  45.34000015
C    11.06999969  15.98000050  46.70999908
C    10.08999920  15.85999966  47.68000031
C     8.75000000  16.18999863  47.36000061
C     7.67000008  16.20000076  48.29000092
C     6.38999987  16.60000038  47.97999954
C     6.19000006  17.22999954  46.72999954
C     7.17000008  17.23999977  45.76000214
C     8.45000076  16.69999886  46.04999924
C    12.51000023  15.88999939  46.83000183
C    13.26000023  16.13000107  45.65000153
C    14.63999939  16.00000000  45.59000015
C     4.76999998  17.64000130  46.39999771
H     4.43009377  17.16554832  45.47942352
H     9.22999954  17.02000046  44.02999878
H    10.39000034  15.64000034  48.69999695
H     7.92000008  15.85999966  49.29000092
H     5.51999998  16.43000031  48.61999893
H     7.03000021  17.59000015  44.73999786
H    15.15999985  16.26000023  44.68000031
H     4.15999985  17.52000046  47.29999924
H     4.82999992  18.71000099  46.18999863
S    15.67000008  14.81999969  49.20999908
C    18.38000107  14.52000046  48.52000427
C    17.12000084  14.93999958  48.18999863
C    16.79999924  15.47999954  46.90000153
C    17.81999969  15.65000057  45.97999954
C    19.14999962  15.29999924  46.32999802
C    20.13000107  15.31999969  45.30000305
C    21.44000053  14.96000099  45.52000046
C    21.75000000  14.47999954  46.81999969
C    20.79999924  14.32000065  47.80000305
C    19.45999908  14.73999977  47.62000275
C    15.36999893  15.69000053  46.75000000
C    14.60000038  15.36000061  47.88999939
C    13.22000027  15.44999981  47.95999908
C    23.22999954  14.32999992  47.12999725
H    23.52228546  14.55099487  48.15655899
H    18.42000008  14.11999893  49.52999878
H    17.53999901  15.84000015  44.94999695
H    19.88000107  15.62000084  44.27999878
H    22.21999931  15.03000069  44.77000427
H    21.21999931  13.90999985  48.72000122
H    12.69000053  15.17000008  48.86000061
H    23.84000015  14.96999931  46.47999573
H    23.50000000  13.31999969  46.81000137
S    15.90999985  12.63000011  52.43999863
C    18.51000023  11.87999916  51.66999817
C    17.14999962  11.85999966  51.43000031
C    16.67000008  11.46000004  50.13999939
C    17.53999901  11.05000019  49.15999985
C    18.94000053  11.11999989  49.38999939
C    19.84000015  10.88999939  48.30999756
C    21.18000031  10.73999977  48.54999924
C    21.71999931  11.06999969  49.81999969
C    20.86999893  11.54999924  50.79000092
C    19.45000076  11.54999924  50.65999985
C    15.24000072  11.72000027  49.95999908
C    14.72000027  12.22000027  51.18000031
C    13.38999939  12.60000038  51.31000137
C    23.19000053  10.85999966  50.07999802
H    23.42399597  11.10817814  51.11525345
H    18.86000061  12.23999977  52.63000107
H    17.23999977  11.03999996  48.11000061
H    19.37000084  10.52999973  47.39999771
H    21.83000183  10.25000000  47.83000183
H    21.28000069  11.78999996  51.77000046
H    12.94999981  12.79999924  52.28000259
H    23.32999992   9.77999973  49.91000366
H    23.84000015  11.46999931  49.43999863
S    11.84000015  11.90000057  47.69000244
C     9.22999954  12.41000080  48.41999817
C    10.54999924  12.41000080  48.80000305
C    11.11999989  12.74000072  50.07999802
C    10.21000004  13.17999935  51.02000427
C     8.86999989  13.32999992  50.61000061
C     7.94000053  13.94000053  51.50000000
C     6.58999968  14.04999924  51.26999664
C     6.02999973  13.63999939  50.02999878
C     6.89000034  13.02000046  49.15999985
C     8.28999996  12.86000061  49.38000107
C    12.55000019  12.51999950  50.20000076
C    13.05999947  12.05000019  48.95999908
C    14.40999985  11.75000000  48.83999634
C     4.59999990  13.94000053  49.65999985
H     4.43020868  13.72068691  48.60587692
H     9.01000023  12.01000023  47.43000031
H    10.52999973  13.61999989  51.95999908
H     8.30000019  14.42999935  52.39999771
H     6.01999998  14.44000053  52.11000061
H     6.51000023  12.71999931  48.18999863
H    14.82999992  11.33999920  47.91999817
H     4.42999983  15.01000023  49.84000397
H     3.84999990  13.43999958  50.27999878
