96

S    12.38000011  16.73999977  44.48999786
C     9.77999973  17.39999962  45.31000137
C    11.00000000  16.81999969  45.59999847
C    11.16000080  16.31999969  46.93000031
C    10.17000008  16.38000107  47.88999939
C     8.89000034  16.87000084  47.56000137
C     7.77999973  16.93000031  48.46000290
C     6.53999996  17.31999969  48.02000046
C     6.32000017  17.63000107  46.65000153
C     7.37999964  17.61999893  45.76000214
C     8.69999981  17.35000038  46.22000122
C    12.58999920  16.06999969  47.09999847
C    13.30999947  16.15999985  45.89000320
C    14.68999958  16.04999924  45.76000214
C     4.94999981  17.87999916  46.06999969
H     4.65738869  17.21627235  45.25639725
H     9.57999992  17.70000076  44.29000092
H    10.40999985  16.02000046  48.88999939
H     7.86999989  16.57999992  49.47999954
H     5.68000031  17.30999947  48.68000031
H     7.26000023  17.69000053  44.68000031
H    15.21999931  16.00000000  44.80999756
H     4.23000002  17.73999977  46.88999939
H     4.90999985  18.93000031  45.77000046
S    15.78999996  15.52999973  49.55999756
C    18.51000023  14.96999931  48.72000122
C    17.21999931  15.42000008  48.50999832
C    16.86000061  15.75000000  47.16999817
C    17.79999924  15.65999985  46.14999771
C    19.17000008  15.46000004  46.42000198
C    20.19000053  15.48999977  45.43000031
C    21.51000023  15.19000053  45.68999863
C    21.87000084  14.86999989  47.02999878
C    20.90999985  14.75000000  48.00000000
C    19.54000092  15.01999950  47.74000168
C    15.44000053  15.93000031  46.93999863
C    14.73000050  15.84000015  48.16999817
C    13.34000015  15.85999966  48.26000214
C    23.28000069  14.50000000  47.41000366
H    23.59250450  15.06108952  48.29069519
H    18.75000000  14.51000023  49.66999817
H    17.38999939  15.62999916  45.13999939
H    19.96000099  15.73999977  44.40000153
H    22.23999977  15.29999924  44.89999771
H    21.09000015  14.46000004  49.02999878
H    12.86000061  15.80999947  49.22999954
H    23.90999985  14.63000107  46.51000214
H    23.29999924  13.40999985  47.57999802
S    12.20000076  17.07999992  51.46999741
C     9.51000023  17.40999985  52.06999969
C    10.76000023  17.02000046  52.49000168
C    11.07999992  16.64999962  53.83999634
C    10.03999901  16.48999977  54.73999786
C     8.76999950  16.95000076  54.31999969
C     7.76999998  17.05999947  55.31999969
C     6.52999973  17.52000046  54.94999695
C     6.14000034  17.86999893  53.62999725
C     7.13000011  17.86999893  52.67000198
C     8.43000031  17.36999893  52.98999786
C    12.50000000  16.39999962  54.02999878
C    13.22999954  16.60000038  52.83000183
C    14.60000038  16.52000046  52.63999939
C     4.72000027  18.30000114  53.34999847
H     4.32967567  17.68257713  52.54096603
H     9.36999989  17.79000092  51.05999756
H    10.18000031  16.22999954  55.79000092
H     8.00000000  16.70999908  56.31999969
H     5.77000046  17.76000023  55.68999863
H     6.93000031  18.19000053  51.65999985
H    15.10000038  16.64999962  51.69000244
H     4.13000011  18.12000084  54.26000214
H     4.73000002  19.37999916  53.13999939
S    15.75000000  15.88999939  56.45000076
C    18.43000031  15.52000046  55.56000137
C    17.11000061  15.81999969  55.30000305
C    16.73999977  16.15999985  53.95999908
C    17.73999977  16.25000000  53.02000046
C    19.04999924  15.73999977  53.22000122
C    20.07999802  15.73999977  52.23999786
C    21.34000015  15.27999973  52.52999878
C    21.68999863  14.84000015  53.82999802
C    20.75000000  14.93000031  54.81999969
C    19.42000008  15.39000034  54.55999756
C    15.29000092  16.29999924  53.83999634
C    14.63999939  16.13000107  55.08999634
C    13.25000000  16.10000038  55.18000031
C    23.09999847  14.39000034  54.13999939
H    23.38426399  14.83771515  55.09228516
H    18.63999939  15.11999989  56.55000305
H    17.48999977  16.65999985  52.04000092
H    19.78000069  16.18999863  51.30000305
H    22.00000000  15.21999931  51.66999817
H    21.05999947  14.65999985  55.83000183
H    12.75000000  16.05999947  56.13999939
H    23.80000114  14.60999966  53.33000183
H    22.98000145  13.30000019  54.15000153
