96

S    12.25999928  16.68000031  44.43000031
C     9.56999969  17.04000092  45.06999969
C    10.82999992  16.65999985  45.47999954
C    11.17000008  16.21999931  46.79000092
C    10.13000011  16.25000000  47.70000076
C     8.82999992  16.72999954  47.42000198
C     7.73000002  16.62999916  48.31999969
C     6.51999998  17.13000107  47.90000153
C     6.23000050  17.53000069  46.56999969
C     7.25000000  17.46999931  45.63999939
C     8.55000019  17.06999969  46.04999924
C    12.60000038  15.98000050  46.97999954
C    13.28999996  16.10999870  45.75000000
C    14.68000031  16.17000008  45.70000076
C     4.86999989  18.00000000  46.12999725
H     4.45133209  17.41102600  45.31395340
H     9.26000023  17.35999870  44.06999969
H    10.34999943  15.81999969  48.67000198
H     7.88999987  16.13999939  49.27999878
H     5.75999975  17.30999947  48.66000366
H     7.09000015  17.77000046  44.61000061
H    15.19999981  16.43000031  44.78000259
H     4.18000031  17.88999939  46.97000122
H     4.86000013  19.05999947  45.83000183
S    15.85000038  15.72999954  49.45000076
C    18.53000069  15.34999943  48.74000168
C    17.23999977  15.65999985  48.34999847
C    16.90000153  16.01000023  47.01000214
C    17.89999962  16.03000069  46.05999756
C    19.20999908  15.59000015  46.37000275
C    20.22999954  15.44999981  45.38999939
C    21.51000023  15.03999901  45.70999908
C    21.84000015  14.93000031  47.09000015
C    20.86000061  14.88999939  48.06000137
C    19.52999878  15.25000000  47.74000168
C    15.44999981  16.05999947  46.86000061
C    14.73999977  15.86999989  48.06999969
C    13.35000038  15.88000107  48.15999985
C    23.28000069  14.70000076  47.47000122
H    23.53680611  15.15654373  48.42588806
H    18.77000046  15.01000023  49.73999786
H    17.67000008  16.32999992  45.04000092
H    19.82999992  15.72000027  44.41999817
H    22.29000092  14.94999981  44.95999908
H    21.04000092  14.65999985  49.10999680
H    12.82999992  15.67999935  49.08000183
H    23.95000076  15.11000061  46.70000076
H    23.42000008  13.60999966  47.56999969
S    15.98000050  13.05999947  52.57999802
C    18.60999870  12.42000008  51.83000183
C    17.27000046  12.43999958  51.52999878
C    16.87999916  12.11999989  50.19000244
C    17.73999977  11.79999924  49.15000153
C    19.11000061  11.69999981  49.48999786
C    20.06000137  11.28999901  48.50999832
C    21.38999939  11.18000031  48.82999802
C    21.80000114  11.51999950  50.13999939
C    20.92000008  11.97999954  51.10000229
C    19.54000092  12.11999989  50.79999924
C    15.44999981  12.36999989  50.02999878
C    14.85999966  12.86000061  51.22000122
C    13.50999928  13.14000034  51.39999771
C    23.21000099  11.11999989  50.51000214
H    23.46556282  11.44655037  51.51804733
H    19.05999947  12.71999931  52.77000046
H    17.35999870  11.40999985  48.20999908
H    19.85000038  10.95000076  47.50000000
H    22.03000069  10.57999992  48.18000031
H    21.25999832  12.17000008  52.11999893
H    13.05999947  13.36999989  52.36000061
H    23.32999992  10.03000069  50.56999969
H    23.95000076  11.51999950  49.79999924
S    12.20000076  12.48999977  47.63000107
C     9.55000019  12.92000008  48.44999695
C    10.88999939  12.86999893  48.75999832
C    11.32999992  13.27000046  50.06999969
C    10.36999893  13.76999950  50.93000031
C     9.03999996  14.04999924  50.52000046
C     8.03999996  14.57999992  51.38000107
C     6.71000004  14.39000034  51.09000397
C     6.24000025  13.78000069  49.89999771
C     7.17000008  13.23999977  49.05000305
C     8.56000042  13.45000076  49.31000137
C    12.76999950  13.09000015  50.20999908
C    13.31999969  12.57999992  49.01000214
C    14.63999939  12.17000008  48.89999771
C     4.79999971  13.47000027  49.56999969
H     4.42213583  13.74805164  48.58612823
H     9.22999954  12.36999989  47.56999969
H    10.57999992  14.04000092  51.95999908
H     8.28999996  15.00000000  52.35000229
H     5.98000002  14.75000000  51.81999969
H     6.90999985  12.79000092  48.09999847
H    15.01999950  11.77999973  47.95999908
H     4.15000010  14.04000092  50.25000000
H     4.67000008  12.38999939  49.75000000
