96

S    12.51999950  16.46000099  44.38000107
C     9.92000008  17.13000107  45.17000198
C    11.13999939  16.57999992  45.47999954
C    11.46999931  16.21000099  46.81999969
C    10.48999977  16.31000137  47.78999710
C     9.23999977  16.92000008  47.51999664
C     8.19999981  16.84000015  48.50000000
C     6.90000010  17.04000092  48.11000061
C     6.60000038  17.63000107  46.84999847
C     7.57999992  17.67000008  45.89000320
C     8.92000008  17.28000069  46.17000198
C    12.89000034  15.92000008  46.97999954
C    13.59000015  16.10000038  45.75000000
C    14.98000050  16.18000031  45.76000214
C     5.23000002  18.15000153  46.46999741
H     4.81859398  17.57545090  45.64009476
H     9.78999996  17.51000023  44.15999985
H    10.59000015  15.78999996  48.74000168
H     8.51000023  16.45000076  49.47000122
H     6.07999992  16.79000092  48.76999664
H     7.34000015  18.05999947  44.89999771
H    15.48999977  16.28999901  44.80999756
H     4.59000015  18.01000023  47.35000229
H     5.26000023  19.22999954  46.27999878
S    16.03999901  15.21999931  49.47999954
C    18.71999931  14.75999928  48.76999664
C    17.48999977  15.26999950  48.44999695
C    17.10000038  15.65000057  47.11999893
C    18.09000015  15.65000057  46.14999771
C    19.40999985  15.21999931  46.43000031
C    20.51000214  15.19999981  45.52999878
C    21.76000214  14.70000076  45.84000015
C    22.01000023  14.21000004  47.15000153
C    20.98999977  14.19999981  48.06999969
C    19.70000076  14.70000076  47.74000168
C    15.67999935  15.92000008  46.93999863
C    14.98000050  15.72999954  48.15000153
C    13.59000015  15.75000000  48.18000031
C    23.43000031  13.94999981  47.58999634
H    23.77161789  14.49089432  48.47251129
H    18.89000130  14.46000004  49.79999924
H    17.98999977  16.13000107  45.18000031
H    20.52000046  15.62000084  44.52999878
H    22.50999832  14.72000027  45.06000137
H    21.18000031  13.89999962  49.09999847
H    13.09000015  15.65999985  49.13999939
H    24.04000092  14.17000008  46.70999908
H    23.50000000  12.89999962  47.88000107
S    16.10000038  12.84999943  52.38999939
C    18.76000023  12.10999966  51.90000153
C    17.46000099  12.18999958  51.46999741
C    17.01000023  11.71000004  50.20000076
C    18.02999878  11.23999977  49.40000153
C    19.42000008  11.33999920  49.64000320
C    20.45999908  10.97000027  48.74000168
C    21.77999878  10.95000076  49.09999847
C    22.13999939  11.28000069  50.43000031
C    21.14000130  11.56000042  51.33999634
C    19.77000046  11.67000008  51.00000000
C    15.59999943  11.98999977  49.95999908
C    14.93999958  12.56999969  51.07999802
C    13.63999939  13.05999947  50.94999695
C    23.50000000  10.85999966  50.94999695
H    23.66396141  10.90990162  52.02643967
H    18.89999962  12.27000046  52.97000122
H    17.77000046  10.80999947  48.43000031
H    20.13000107  10.64000034  47.76000214
H    22.52000046  10.48999977  48.43999863
H    21.37000084  11.79999924  52.36999893
H    13.10999966  13.50000000  51.79000092
H    23.68999863   9.85999966  50.52999878
H    24.15999985  11.61000061  50.50000000
S    12.23000050  11.87999916  47.49000168
C     9.55000019  12.56999969  48.20000076
C    10.90000057  12.56000042  48.43999863
C    11.44999981  13.07000065  49.66999817
C    10.59000015  13.69999981  50.54999924
C     9.19000053  13.61999989  50.37000275
C     8.30999947  13.97999954  51.43000031
C     6.94999981  14.06999969  51.20999908
C     6.44999981  13.89000034  49.89999771
C     7.26000023  13.38999939  48.89999771
C     8.64000034  13.14000034  49.13000107
C    12.86999893  12.81999969  49.80999756
C    13.48000050  12.15000057  48.72000122
C    14.81999969  11.79999924  48.81000137
C     4.99000025  14.14000034  49.59000015
H     4.66142321  13.78999424  48.61141205
H     9.18000031  12.35000038  47.19999695
H    10.93000031  14.04000092  51.52999878
H     8.67000008  14.26000023  52.42000198
H     6.32000017  14.47000027  52.00000000
H     6.83000040  13.21000004  47.91999817
H    15.36999893  11.46999931  47.93000031
H     4.67000008  15.18000031  49.73999786
H     4.39000034  13.48999977  50.24000168
