96

S    12.13000107  16.73999977  44.23999786
C     9.51000023  17.19000053  45.00999832
C    10.77000046  16.77999878  45.38000107
C    11.06999969  16.35000038  46.70999908
C    10.00000000  16.36999893  47.60000229
C     8.67999935  16.70999908  47.23999786
C     7.59000015  16.64999962  48.15999985
C     6.32999992  16.97000122  47.70999908
C     6.03999996  17.46999931  46.42000198
C     7.07000017  17.43000031  45.50000000
C     8.39999962  17.14999962  45.90000153
C    12.48999977  16.06999969  46.81000137
C    13.19000053  16.26000023  45.59000015
C    14.56999969  16.26000023  45.52000046
C     4.61000013  17.78000069  46.04999924
H     4.31668472  17.51530075  45.03412628
H     9.30999947  17.50000000  43.97999573
H    10.21000004  15.95999908  48.57999802
H     7.85000038  16.34000015  49.16999817
H     5.52999973  16.84000015  48.43000031
H     6.81999969  17.59000015  44.45000076
H    15.07999992  16.29999924  44.55999756
H     3.84999990  17.35999870  46.72000122
H     4.51000023  18.86999893  46.18000031
S    15.67999935  15.40999985  49.27999878
C    18.38000107  15.26999950  48.55999756
C    17.07999992  15.48999977  48.18999863
C    16.75000000  15.77000046  46.81999969
C    17.75000000  16.02000046  45.90000153
C    19.11000061  15.78999996  46.25000000
C    20.15000153  15.92000008  45.30000305
C    21.38999939  15.43000031  45.65000153
C    21.73999977  14.94999981  46.93999863
C    20.76000023  15.01999950  47.90000153
C    19.40000153  15.31000042  47.57999802
C    15.31999969  15.98000050  46.66999817
C    14.63000107  15.81999969  47.90000153
C    13.25000000  15.90999985  47.97999954
C    23.19999886  14.67000008  47.25999832
H    23.46381378  15.01937485  48.25821686
H    18.61999893  14.94999981  49.56999969
H    17.53000069  16.40999985  44.91000366
H    19.93999863  16.39000130  44.34000015
H    22.06999969  15.34999943  44.80999756
H    21.04000092  14.88000011  48.94000244
H    12.74000072  15.65999985  48.90999603
H    23.85000038  15.08999920  46.47999573
H    23.36999893  13.60000038  47.11999893
S    15.57999992  12.97000027  52.28000259
C    18.22999954  12.56999969  51.39999771
C    16.87999916  12.42000008  51.19999695
C    16.34000015  12.00000000  49.93999863
C    17.17000008  11.54000092  48.94000244
C    18.56999969  11.59999943  49.16999817
C    19.52000046  11.11999989  48.22999954
C    20.86999893  11.17000008  48.43999863
C    21.37000084  11.75000000  49.64000320
C    20.51000214  12.34000015  50.52999878
C    19.10000038  12.28000069  50.31999969
C    14.91000080  12.23000050  49.77000427
C    14.45000076  12.94000053  50.91999817
C    13.15999985  13.45000076  50.97000122
C    22.79999924  11.46000004  50.00999832
H    23.02702522  11.92823887  50.96776199
H    18.64999962  12.69000053  52.39999771
H    16.81999969  11.00999928  48.06000137
H    19.26000023  10.47999954  47.37999725
H    21.52000046  10.59000015  47.77999878
H    20.79999924  12.69999981  51.52000046
H    12.76000023  13.93000031  51.86000061
H    22.86000061  10.38000011  50.13999939
H    23.52999878  11.72999954  49.22999954
S    11.56000042  12.13000107  47.51999664
C     9.01000023  12.81000042  48.41999817
C    10.36000061  12.74000072  48.68000031
C    10.92000008  13.21000004  49.91000366
C    10.03000069  13.61999989  50.87999725
C     8.64000034  13.71999931  50.63000107
C     7.77999973  14.39000034  51.55000305
C     6.46000004  14.65000057  51.27999878
C     5.91000032  14.22999954  50.04000092
C     6.70000029  13.57999992  49.12000275
C     8.09000015  13.34000015  49.34999847
C    12.38000011  13.22000027  49.82999802
C    12.84999943  12.64999962  48.61999893
C    14.11000061  12.06999969  48.62999725
C     4.44999981  14.40000057  49.68999863
H     4.22870493  13.79322433  48.81196213
H     8.71999931  12.56999969  47.39999771
H    10.38000011  14.06999969  51.79999924
H     8.18000031  14.72000027  52.50999832
H     5.79999971  15.19000053  51.95000076
H     6.34999990  13.40999985  48.09999847
H    14.48999977  11.50000000  47.78999710
H     4.39000034  15.48999977  49.58000183
H     3.94000006  14.07999992  50.61000061
