96

S    12.20000076  17.02000046  44.27000046
C     9.47000027  17.28999901  45.00999832
C    10.75000000  16.84999847  45.27000046
C    11.10999966  16.40999985  46.59000015
C    10.15999985  16.44000053  47.58999634
C     8.84000015  16.90000153  47.34000397
C     7.81000042  16.73999977  48.30999756
C     6.51000023  17.07999992  48.06000137
C     6.15000010  17.61999893  46.79000092
C     7.11999989  17.71999931  45.83000183
C     8.46000004  17.26000023  46.00000000
C    12.53000069  16.17000008  46.77000046
C    13.25000000  16.47999954  45.59000015
C    14.63999939  16.50000000  45.54999924
C     4.80999994  18.22000122  46.43000031
H     4.34191990  17.82284164  45.52929688
H     9.15000057  17.72999954  44.06999969
H    10.34999943  16.00000000  48.56999969
H     8.02999973  16.45000076  49.34000015
H     5.78000021  16.84000015  48.82999802
H     6.86999989  18.34000015  44.97000122
H    15.15999985  16.72000122  44.61999893
H     4.09999990  18.04000092  47.25000000
H     5.00999975  19.29000092  46.33999634
S    15.65999985  15.62000084  49.29000092
C    18.26000023  14.88999939  48.59000397
C    17.05999947  15.46000004  48.20999908
C    16.77999878  15.95000076  46.90000153
C    17.79999924  16.14999962  46.00000000
C    19.10000038  15.80000019  46.42000198
C    20.20000076  16.03999901  45.54999924
C    21.42999840  15.47000027  45.77999878
C    21.63999939  14.85000038  47.04000092
C    20.65000153  14.70000076  47.97999954
C    19.32999992  15.14999962  47.69000244
C    15.34999943  16.14999962  46.70999908
C    14.60999966  15.98000050  47.90999985
C    13.22000027  15.97000027  47.97000122
C    23.08000183  14.45000076  47.29000092
H    23.46454239  15.07666206  48.09468842
H    18.35000038  14.37000084  49.52999878
H    17.68000031  16.65999985  45.04000092
H    20.00999832  16.72000122  44.72000122
H    22.23999977  15.70000076  45.10000229
H    20.81000137  14.22999954  48.94000244
H    12.69999981  15.81999969  48.92000198
H    23.74000168  14.45000076  46.40999603
H    23.02000046  13.38999939  47.56999969
S    16.02000046  13.31999969  52.34000397
C    18.63000107  12.55000019  51.58000183
C    17.27000046  12.55000019  51.33999634
C    16.80999947  12.18000031  50.02999878
C    17.71000099  11.67000008  49.12000275
C    19.10000038  11.68000031  49.34999847
C    20.03000069  11.33999920  48.31999969
C    21.34000015  11.18000031  48.68000031
C    21.80000114  11.51999950  49.98000336
C    20.96999931  11.97000027  50.97000122
C    19.59000015  12.06999969  50.65000153
C    15.39999962  12.50000000  49.86999893
C    14.85999966  13.14000034  51.00999832
C    13.48000050  13.28999996  51.10000229
C    23.26999855  11.30000019  50.27000046
H    23.58258438  11.54154205  51.28589630
H    19.04999924  13.05999947  52.43999863
H    17.38999939  11.21999931  48.18000031
H    19.70000076  10.93999958  47.36000061
H    22.04999924  10.85000038  47.91999817
H    21.27000046  12.20000076  51.98999786
H    12.97999954  13.47000027  52.04000092
H    23.40999985  10.26000023  49.95999908
H    23.81999969  11.90999985  49.54000092
S    12.11999989  12.44999981  47.45999908
C     9.44999981  13.12999916  48.16999817
C    10.77999973  13.00000000  48.48999786
C    11.26000023  13.27999973  49.80999756
C    10.34999943  13.67000008  50.77999878
C     8.97000027  13.68999958  50.47999954
C     8.01999950  14.25000000  51.37000275
C     6.67999983  14.27000046  51.04999924
C     6.19000006  13.89000034  49.77000427
C     7.07999992  13.34000015  48.88000107
C     8.47000027  13.38000107  49.16999817
C    12.71000004  13.17000008  49.93000031
C    13.30000019  12.60000038  48.77999878
C    14.60000038  12.11999989  48.77999878
C     4.71000004  13.96999931  49.45000076
H     4.54687357  13.84942818  48.37904358
H     9.13999939  12.76000023  47.19999695
H    10.72999954  14.09999943  51.70000076
H     8.42000008  14.85000038  52.18999863
H     6.02999973  14.85000038  51.70000076
H     6.78999996  13.14000034  47.84999847
H    14.98000050  11.56999969  47.93000031
H     4.38000011  14.93999958  49.81999969
H     4.19999981  13.22000027  50.07999802
