96

S    12.15000057  16.79999924  44.45999908
C     9.44999981  17.13999939  45.19000244
C    10.72999954  16.79000092  45.52999878
C    11.07999992  16.31000137  46.83000183
C    10.08999920  16.27000046  47.80000305
C     8.73999977  16.55999947  47.50999832
C     7.67000008  16.48999977  48.43999863
C     6.38000011  16.87999916  48.15000153
C     6.11000013  17.28999901  46.81000137
C     7.11999989  17.48999977  45.90000153
C     8.45000076  17.05999947  46.18999863
C    12.50000000  16.09000015  47.06999969
C    13.15000057  16.21000099  45.80999756
C    14.52000046  16.03999901  45.65999985
C     4.74000025  17.77000046  46.42000198
H     4.43521833  17.27384377  45.49856949
H     9.34000015  17.70000076  44.26000214
H    10.29999924  15.88999939  48.80000305
H     7.85000038  16.01000023  49.40000153
H     5.61999989  16.77999878  48.90999603
H     7.00999975  18.13999939  45.02999878
H    15.01000023  16.21000099  44.71000290
H     4.07000017  17.51000023  47.25000000
H     4.63999987  18.86000061  46.35000229
S    15.71000004  15.18000031  49.38000107
C    18.32999992  14.70999908  48.63999939
C    17.06999969  15.10000038  48.25000000
C    16.73999977  15.47999954  46.90999985
C    17.76000023  15.62000084  45.97999954
C    19.09000015  15.29999924  46.35000229
C    20.17000008  15.39999962  45.44000244
C    21.45000076  14.98000050  45.72000122
C    21.68999863  14.42999935  47.01000214
C    20.66999817  14.28999996  47.91999817
C    19.36000061  14.78999996  47.67000198
C    15.29999924  15.65000057  46.75000000
C    14.63999939  15.52999973  48.00000000
C    13.30000019  15.81999969  48.18999863
C    23.05000114  13.97999954  47.48000336
H    23.29936218  14.44310284  48.43470383
H    18.57999992  14.26000023  49.59999847
H    17.54999924  16.09000015  45.02999878
H    19.92000008  15.93999958  44.52999878
H    22.23999977  15.21999931  45.01999664
H    20.75000000  13.86000061  48.92000198
H    12.88000011  15.86999989  49.19000244
H    23.81000137  14.22999954  46.72999954
H    23.08000183  12.88000011  47.50999832
S    11.64999962  17.04000092  51.20999908
C     9.06999969  17.50000000  51.95999908
C    10.27999973  16.95999908  52.32999802
C    10.55999947  16.44000053  53.62999725
C     9.52999973  16.38000107  54.55999756
C     8.26000023  16.82999992  54.15000153
C     7.13000011  16.61000061  54.99000168
C     5.88999987  17.12000084  54.68999863
C     5.69999981  17.80999947  53.47000122
C     6.71999979  18.00000000  52.56999969
C     8.00000000  17.45000076  52.88000107
C    12.01000023  16.32999992  53.75000000
C    12.69000053  16.46000099  52.51999664
C    14.07999992  16.44000053  52.43000031
C     4.30000019  18.12999916  52.98999786
H     4.00252628  17.47838974  52.16840744
H     8.89999962  17.88999939  50.94999695
H     9.55000019  15.93000031  55.54999924
H     7.39000034  16.10999870  55.91999817
H     5.13000011  17.02000046  55.45999908
H     6.61999989  18.55999947  51.63999939
H    14.55000019  16.86000061  51.55000305
H     3.63000011  17.98999977  53.85000229
H     4.23999977  19.17000008  52.65999603
S    15.21000004  15.64000034  56.17000198
C    17.86999893  15.18000031  55.38000107
C    16.59000015  15.57999992  55.06000137
C    16.25000000  16.07999992  53.75999832
C    17.26000023  16.21999931  52.84000015
C    18.60000038  15.86999989  53.13000107
C    19.62000084  15.92000008  52.12999725
C    20.88999939  15.50000000  52.45999908
C    21.21999931  15.00000000  53.74000168
C    20.22999954  14.89999962  54.68999863
C    18.89999962  15.31999969  54.41999817
C    14.80000019  16.05999947  53.55999756
C    14.14000034  15.69000053  54.75999832
C    12.75000000  15.81999969  54.81999969
C    22.60999870  14.51000023  54.09000015
H    23.09278679  15.25547886  54.72188568
H    17.97000122  14.82999992  56.40999603
H    17.02999878  16.29999924  51.77999878
H    19.34000015  16.17000008  51.11000061
H    21.63999939  15.44000053  51.66999817
H    20.28000069  14.27000046  55.58000183
H    12.10999966  15.42000008  55.59999847
H    23.11000061  14.35999966  53.13000107
H    22.57999802  13.50999928  54.54999924
