96

S    11.79999924  17.45000076  44.13999939
C     9.13999939  17.90999985  44.97000122
C    10.42000008  17.46999931  45.25000000
C    10.76000023  16.90000153  46.52000046
C     9.80000019  16.90000153  47.51999664
C     8.53999996  17.51000023  47.29000092
C     7.55000019  17.46000099  48.30999756
C     6.30999994  17.97999954  48.06000137
C     5.91000032  18.53000069  46.81000137
C     6.88000011  18.59000015  45.83000183
C     8.17000008  18.02000046  46.00000000
C    12.20000076  16.72000122  46.63999939
C    12.90999985  16.98999977  45.45000076
C    14.29999924  16.98999977  45.40000153
C     4.46000004  18.54999924  46.38999939
H     4.16177034  18.05294991  45.46690750
H     8.84000015  18.40999985  44.06000137
H    10.03000069  16.46999931  48.48999786
H     7.77999973  17.05000114  49.29000092
H     5.56999969  17.79000092  48.82999802
H     6.54999971  18.89999962  44.84000397
H    14.80999947  17.01000023  44.43999863
H     3.81000018  18.11000061  47.15999985
H     4.21000004  19.61000061  46.35000229
S    15.42000008  16.07999992  49.13999939
C    18.05999947  15.52000046  48.26000214
C    16.79000092  15.98000050  48.02000046
C    16.42000008  16.42000008  46.70999908
C    17.38999939  16.56999969  45.73999786
C    18.76000023  16.36999893  46.06999969
C    19.82999992  16.51000023  45.14999771
C    21.11000061  16.09000015  45.43000031
C    21.40999985  15.50000000  46.69000244
C    20.43000031  15.34999943  47.64999771
C    19.10000038  15.75000000  47.31999969
C    14.98999977  16.69000053  46.58000183
C    14.30999947  16.51000023  47.81000137
C    12.92000008  16.54000092  47.83000183
C    22.84000015  15.08999920  46.91999817
H    23.18892860  15.58846855  47.82436371
H    18.32999992  15.13000011  49.25000000
H    17.13999939  17.01000023  44.78000259
H    19.64999962  17.01000023  44.20000076
H    21.90999985  16.36000061  44.75000000
H    20.72000122  14.88999939  48.57999802
H    12.42000008  16.59000015  48.79000092
H    23.47999954  15.43000031  46.10000229
H    22.95999908  14.00000000  47.02999878
S    16.01000023  13.63000011  52.09000015
C    18.57999992  12.69000053  51.52000046
C    17.28000069  12.89999962  51.09000397
C    16.76000023  12.44999981  49.84000397
C    17.67000008  12.10999966  48.86000061
C    19.05999947  12.10999966  49.15000153
C    20.05000114  11.65999985  48.22999954
C    21.35999870  11.44999981  48.59000397
C    21.83000183  11.87999916  49.86000061
C    20.90999985  12.38999939  50.75000000
C    19.51000023  12.39999962  50.48999786
C    15.34999943  12.76000023  49.65999985
C    14.80999947  13.35999966  50.81999969
C    13.47000027  13.69999981  50.97000122
C    23.23999786  11.59000015  50.31999969
H    23.48292923  12.11872864  51.24169922
H    18.98999977  12.89000034  52.50000000
H    17.20999908  11.61000061  48.01000214
H    19.96000099  11.54000092  47.15999985
H    22.01000023  10.92000008  47.90999985
H    21.11000061  12.64000034  51.77999878
H    13.05999947  13.93000031  51.95000076
H    23.34000015  10.48999977  50.34999847
H    23.97000122  11.87000084  49.54000092
S    11.98999977  12.76000023  47.36999893
C     9.34000015  13.26000023  48.15999985
C    10.69000053  13.31999969  48.43999863
C    11.23999977  13.60999966  49.72999954
C    10.34000015  14.04000092  50.68000031
C     8.96000004  14.19000053  50.38999939
C     8.13000011  14.80999947  51.37000275
C     6.78999996  14.96999931  51.07999802
C     6.28000021  14.57999992  49.80999756
C     7.07000017  14.04000092  48.81999969
C     8.43999958  13.78999901  49.12000275
C    12.69000053  13.48999977  49.81999969
C    13.23999977  13.00000000  48.61000061
C    14.59000015  12.69999981  48.47999954
C     4.78999996  14.68999958  49.58000183
H     4.60544825  14.43446636  48.53657150
H     9.09000015  12.86999893  47.18000031
H    10.72999954  14.29999924  51.65999985
H     8.67000008  15.11999989  52.25999832
H     6.05999994  15.24000072  51.83000183
H     6.69000053  13.82999992  47.81999969
H    15.06000042  12.20999908  47.63999939
H     4.53999996  15.73999977  49.73999786
H     4.32000017  14.01999950  50.31000137
