96

S    12.30000019  17.18000031  44.02000046
C     9.70000076  17.67000008  44.78000259
C    10.93999958  17.21999931  45.15999603
C    11.30000019  16.70999908  46.45000076
C    10.27999973  16.45000076  47.35000229
C     8.97999954  16.90999985  47.02000046
C     7.92999983  16.79999924  47.97000122
C     6.65999985  17.26000023  47.69000244
C     6.40999985  17.82999992  46.40999603
C     7.37999964  18.00000000  45.45000076
C     8.69000053  17.52000046  45.75000000
C    12.74000072  16.46000099  46.51000214
C    13.42000008  16.67000008  45.28999710
C    14.80999947  16.61999893  45.20999908
C     4.96000004  18.09000015  46.09000397
H     4.64867735  17.48150444  45.24094009
H     9.50000000  18.17000008  43.82999802
H    10.48999977  16.05999947  48.34000015
H     8.06999969  16.34000015  48.95000076
H     5.86000013  17.19000053  48.41999817
H     7.14999962  18.40999985  44.47000122
H    15.31000042  16.97999954  44.31000137
H     4.28000021  17.97999954  46.93999863
H     4.86000013  19.15999985  45.86000061
S    15.88000107  15.73999977  48.94000244
C    18.48999977  15.06000042  48.16999817
C    17.27000046  15.59000015  47.84000015
C    16.95000076  16.03000069  46.52000046
C    17.94999886  16.03000069  45.56999969
C    19.23999977  15.54999924  45.90000153
C    20.29999924  15.65000057  44.95999908
C    21.54000092  15.14000034  45.25000000
C    21.80000114  14.65000057  46.56000137
C    20.86000061  14.67000008  47.56999969
C    19.54000092  15.06000042  47.22000122
C    15.52999973  16.31999969  46.37000275
C    14.80000019  16.10000038  47.57999802
C    13.42000008  16.09000015  47.67000198
C    23.13999939  14.09000015  46.97000122
H    23.50273705  14.67322540  47.81638718
H    18.54999924  14.52999973  49.12000275
H    17.84000015  16.46999931  44.58000183
H    20.17000008  16.22999954  44.03999710
H    22.29999924  15.10000038  44.47999954
H    21.09999847  14.23999977  48.54000092
H    12.84000015  15.67999935  48.50000000
H    23.77000046  14.06999969  46.07999802
H    22.96999931  13.04999924  47.28000259
S    11.80999947  17.06999969  51.04000092
C     9.13999939  17.27000046  51.81999969
C    10.44999981  17.01000023  52.18000031
C    10.81999969  16.75000000  53.54000092
C     9.89000034  16.87000084  54.54999924
C     8.52999973  17.02999878  54.18000031
C     7.51999950  16.87999916  55.17000198
C     6.23000050  17.20000076  54.82999802
C     5.86000013  17.61999893  53.52000427
C     6.78999996  17.61000061  52.50999832
C     8.14000034  17.28999901  52.81999969
C    12.28000069  16.69000053  53.60000229
C    12.94999981  16.73999977  52.36000061
C    14.32999992  16.76000023  52.22999954
C     4.41000032  17.84000015  53.15999985
H     4.15304613  17.46884346  52.16787338
H     8.96000004  17.46999931  50.77000046
H    10.08999920  16.72000122  55.59999847
H     7.82000017  16.54000092  56.16000366
H     5.46000004  17.06999969  55.59000015
H     6.63000011  17.75000000  51.44000244
H    14.81999969  16.80999947  51.25999832
H     3.79999995  17.40999985  53.96999741
H     4.19999981  18.92000008  53.18999863
S    15.55999947  16.10999870  55.94999695
C    18.13999939  15.44000053  55.01999664
C    16.88999939  15.95000076  54.78000259
C    16.54000092  16.31999969  53.43999863
C    17.43999863  16.17000008  52.39999771
C    18.75000000  15.71000004  52.62000275
C    19.79999924  15.67999935  51.65999985
C    21.05999947  15.19999981  51.93999863
C    21.40000153  14.93999958  53.29000092
C    20.45999908  15.07999992  54.29000092
C    19.10000038  15.36000061  53.96999741
C    15.11999989  16.62999916  53.37999725
C    14.46000004  16.55999947  54.62999725
C    13.07000065  16.59000015  54.75000000
C    22.79999924  14.44000053  53.60000229
H    23.19155312  14.94546032  54.48278046
H    18.57999992  15.13000011  55.96000290
H    17.09000015  16.29999924  51.38000107
H    19.50000000  16.01000023  50.65999985
H    21.71999931  15.06000042  51.09000397
H    20.72000122  14.89999962  55.33000183
H    12.50000000  16.60000038  55.68000031
H    23.48999977  14.57999992  52.76000214
H    22.72000122  13.35999966  53.76999664
