96

S    12.34000015  17.01000023  44.40999985
C     9.61999989  17.31999969  45.13000107
C    10.90000057  16.90999985  45.43000031
C    11.19999981  16.47999954  46.76000214
C    10.18000031  16.28999901  47.68000031
C     8.85999966  16.69999886  47.37999725
C     7.83999968  16.48999977  48.34999847
C     6.56000042  16.86000061  48.00000000
C     6.25000000  17.48999977  46.76000214
C     7.22000027  17.60000038  45.79000092
C     8.55000019  17.17000008  46.05999756
C    12.64000034  16.31000137  46.95999908
C    13.38000107  16.57999992  45.77999878
C    14.75999928  16.47999954  45.72999954
C     4.82999992  17.81999969  46.36000061
H     4.45171547  17.19190598  45.55346680
H     9.44999981  17.57999992  44.09000015
H    10.44000053  15.86999989  48.64999771
H     8.06999969  16.02000046  49.29999924
H     5.69999981  16.53000069  48.55999756
H     6.98000002  17.89999962  44.77000427
H    15.25000000  16.75000000  44.79000092
H     4.07999992  17.75000000  47.15000153
H     4.88000011  18.89999962  46.17000198
S    15.82999992  15.54999924  49.45000076
C    18.53999901  15.34999943  48.61000061
C    17.20000076  15.54999924  48.34000015
C    16.86000061  15.85999966  46.97999954
C    17.79999924  15.98000050  45.97000122
C    19.12999916  15.57000065  46.18999863
C    20.17000008  15.40999985  45.21999741
C    21.42999840  14.94999981  45.50000000
C    21.70999908  14.65999985  46.86000061
C    20.81999969  14.91000080  47.87000275
C    19.47000122  15.24000072  47.55000305
C    15.43000031  16.09000015  46.90000153
C    14.72000027  15.88999939  48.11000061
C    13.32999992  15.98999977  48.13000107
C    23.09999847  14.22000027  47.29000092
H    23.36495590  14.72126865  48.22092819
H    18.96000099  15.00000000  49.54999924
H    17.54999924  16.26000023  44.94999695
H    19.85000038  15.71000004  44.22000122
H    22.15999985  14.63999939  44.75000000
H    21.11000061  14.86999989  48.92000198
H    12.81999969  15.72999954  49.05000305
H    23.78999901  14.40999985  46.45000076
H    23.11000061  13.12999916  47.41000366
S    12.02000046  17.69000053  51.14999771
C     9.22999954  17.67000008  51.69000244
C    10.52000046  17.38999939  52.05999756
C    10.85999966  16.87999916  53.34999847
C     9.81000042  16.75000000  54.22999954
C     8.48999977  17.14999962  53.92000198
C     7.42999983  17.05000114  54.86999893
C     6.15999985  17.45000076  54.52000046
C     5.82999992  17.88999939  53.20999908
C     6.81999969  18.02999878  52.27000427
C     8.15999985  17.70000076  52.63000107
C    12.28999996  16.61999893  53.48999786
C    13.07999992  16.97999954  52.37999725
C    14.46000004  16.87999916  52.27000427
C     4.41000032  18.29000092  52.88000107
H     4.01226807  17.75022125  52.02061462
H     9.02000046  17.75000000  50.63000107
H    10.00000000  16.53000069  55.27999878
H     7.67000008  16.67000008  55.84999847
H     5.33999968  17.35999870  55.22999573
H     6.61000013  18.45999908  51.30000305
H    14.91000080  17.18000031  51.32999802
H     3.81000018  18.19000053  53.79000092
H     4.48999977  19.34999847  52.63000107
S    15.31999969  15.57000065  55.94999695
C    18.04999924  15.47000027  55.37000275
C    16.77000046  15.67999935  54.93000031
C    16.48999977  16.05999947  53.57999802
C    17.46999931  16.28999901  52.63999939
C    18.81000137  16.11999893  53.08000183
C    19.85000038  16.23999977  52.11999893
C    21.14999962  15.88999939  52.42000198
C    21.45999908  15.50000000  53.75000000
C    20.46999931  15.54999924  54.71000290
C    19.09000015  15.73999977  54.43999863
C    15.07999992  16.39999962  53.43000031
C    14.32000065  16.10000038  54.59000015
C    12.93000031  16.02000046  54.59000015
C    22.88999939  15.18000031  54.09999847
H    23.21022606  15.50734234  55.08914185
H    18.30000114  15.10000038  56.36000061
H    17.26000023  16.59000015  51.62000275
H    19.51000023  16.54999924  51.13999939
H    21.94000053  15.95000076  51.68000031
H    20.68000031  15.25000000  55.72999954
H    12.43999958  15.64000034  55.47999954
H    23.43000031  15.81999969  53.39000320
H    23.19000053  14.14000034  53.89999771
