96

S    11.95000076  17.20999908  43.74000168
C     9.28999996  17.61000061  44.36000061
C    10.52000046  17.17000008  44.78000259
C    10.86999989  16.77999878  46.11000061
C     9.84000015  16.84000015  47.02999878
C     8.51000023  17.20999908  46.70000076
C     7.44999981  17.26000023  47.63999939
C     6.21999979  17.76000023  47.27000427
C     5.91000032  17.97999954  45.90000153
C     6.93000031  17.94999886  44.98000336
C     8.25000000  17.54999924  45.33000183
C    12.30999947  16.61999893  46.26999664
C    13.04999924  16.77999878  45.06999969
C    14.42000008  16.54999924  45.04000092
C     4.51999998  18.39999962  45.47999954
H     4.10858631  17.91765213  44.59333038
H     9.15000057  18.15999985  43.43000031
H    10.01999950  16.56999969  48.06999969
H     7.59999990  17.20000076  48.72000122
H     5.51999998  18.06999969  48.02999878
H     6.81999969  18.25000000  43.94000244
H    14.98999977  16.67000008  44.12000275
H     3.84999990  18.26000023  46.33999634
H     4.48999977  19.47999954  45.31999969
S    15.40999985  15.97000027  48.87000275
C    18.07999992  15.52999973  48.18000031
C    16.80999947  15.90000057  47.78999710
C    16.51000023  16.23999977  46.43000031
C    17.56999969  16.31000137  45.54999924
C    18.89000130  15.97000027  45.90999985
C    19.95000076  15.88999939  44.95999908
C    21.15999985  15.32999992  45.30000305
C    21.40000153  14.94999981  46.63999939
C    20.36000061  14.81999969  47.51999664
C    19.15999985  15.53999996  47.25999832
C    15.06000042  16.31999969  46.25999832
C    14.34000015  16.13999939  47.45999908
C    12.97000027  16.39000130  47.49000168
C    22.78000069  14.40999985  46.97999954
H    23.12976456  14.91680336  47.87939835
H    18.22999954  15.19999981  49.20000076
H    17.28000069  16.63999939  44.54999924
H    19.80999947  16.32999992  43.97999573
H    21.97999954  15.31000042  44.58000183
H    20.55000114  14.37999916  48.50000000
H    12.53999901  16.31000137  48.47999954
H    23.48999977  14.65999985  46.18000031
H    22.78000069  13.32999992  47.12999725
S    11.96000004  17.36999893  50.63999939
C     9.22999954  17.59000015  51.22000122
C    10.50000000  17.25000000  51.63000107
C    10.80000019  16.87000084  52.97999954
C     9.77999973  16.94000053  53.90999603
C     8.48999977  17.38000107  53.52000427
C     7.36999989  17.25000000  54.38000107
C     6.11000013  17.68000031  54.02000046
C     5.86999989  18.12999916  52.69000244
C     6.85999966  18.07999992  51.73999786
C     8.17000008  17.71000099  52.15000153
C    12.23999977  16.84999847  53.22999954
C    13.00000000  17.04000092  52.04999924
C    14.37999916  16.94000053  52.00000000
C     4.51999998  18.68999863  52.31999969
H     4.13624334  17.97933960  51.58802032
H     8.97000027  17.76000023  50.17000198
H    10.07999992  16.57999992  54.88999939
H     7.53000021  16.81999969  55.35999680
H     5.31000042  17.73999977  54.75999832
H     6.76000023  18.45999908  50.72999954
H    15.05000019  17.02999878  51.14999771
H     3.97000027  18.84000015  53.26000214
H     4.61000013  19.65999985  51.81999969
S    15.26999950  16.10000038  55.79000092
C    17.97999954  15.72000027  55.20999908
C    16.72999954  16.10000038  54.78000259
C    16.44000053  16.43000031  53.41999817
C    17.39999962  16.35000038  52.43000031
C    18.65999985  15.84000015  52.81999969
C    19.72999954  15.69000053  51.88999939
C    21.01000023  15.42000008  52.30999756
C    21.31999969  15.29000092  53.68999863
C    20.30999947  15.32999992  54.61999893
C    18.96999931  15.59999943  54.20000076
C    15.01999950  16.72000122  53.22000122
C    14.25000000  16.43000031  54.38000107
C    12.86999893  16.56999969  54.45000076
C    22.70999908  14.91000080  54.13999939
H    22.99514389  15.38048840  55.08097458
H    18.02000046  15.54999924  56.27999878
H    17.02999878  16.64999962  51.45000076
H    19.60000038  15.98999977  50.84999847
H    21.77999878  15.21999931  51.56000137
H    20.56999969  15.26999950  55.66999817
H    12.30000019  16.50000000  55.37000275
H    23.45000076  15.19000053  53.37999725
H    22.67999840  13.81000042  54.09000015
