96

S    12.71999931  16.36000061  44.23999786
C    10.08999920  16.97999954  44.93999863
C    11.31999969  16.51000023  45.33000183
C    11.61000061  16.10000038  46.66999817
C    10.59999943  16.20000076  47.62000275
C     9.30999947  16.67000008  47.29000092
C     8.25000000  16.76000023  48.25000000
C     6.98999977  17.13000107  47.84000015
C     6.74000025  17.61999893  46.52999878
C     7.76000023  17.51000023  45.61000061
C     9.06000042  17.02000046  45.91999817
C    13.02999973  15.85999966  46.84999847
C    13.71999931  15.82999992  45.61000061
C    15.10000038  15.85000038  45.50000000
C     5.38999987  18.15999985  46.12999725
H     4.86962223  17.48992348  45.44566727
H     9.90999985  17.40999985  43.95999908
H    10.81999969  15.95000076  48.64999771
H     8.38000011  16.54000092  49.29999924
H     6.19000006  17.13000107  48.56999969
H     7.76000023  17.92000008  44.59999847
H    15.62000084  16.13999939  44.59000015
H     4.78999996  18.26000023  47.04999924
H     5.47999954  19.12999916  45.63000107
S    16.29999924  15.73999977  49.29000092
C    18.92000008  15.17000008  48.56999969
C    17.65999985  15.52999973  48.16999817
C    17.28000069  15.67999935  46.79999924
C    18.27999878  15.72999954  45.84999847
C    19.61000061  15.39999962  46.20999908
C    20.65000153  15.22999954  45.24000168
C    21.86000061  14.68000031  45.56000137
C    22.21999931  14.47000027  46.91999817
C    21.28999901  14.80000019  47.88000107
C    19.93000031  15.08999920  47.56999969
C    15.81999969  15.72999954  46.70000076
C    15.14999962  15.80000019  47.94000244
C    13.76000023  15.82999992  48.04000092
C    23.57999992  14.06999969  47.44999695
H    23.77966690  14.55490971  48.40555573
H    19.19999886  14.82999992  49.56999969
H    17.95999908  15.92000008  44.82999802
H    20.32999992  15.50000000  44.22999954
H    22.56999969  14.51000023  44.75000000
H    21.51000023  14.84000015  48.94000244
H    13.23999977  16.01000023  48.97999573
H    24.37000084  14.27000046  46.72000122
H    23.48999977  13.01000023  47.70000076
S    16.40999985  13.09000015  52.30999756
C    19.04999924  12.46999931  51.45999908
C    17.70000076  12.51000023  51.23000336
C    17.20999908  12.15999985  49.93000031
C    18.02000046  11.59000015  48.95999908
C    19.42000008  11.64000034  49.13999939
C    20.34000015  11.21999931  48.13999939
C    21.61999893  10.88000107  48.52000427
C    22.09000015  11.17000008  49.82999802
C    21.28999901  11.78999996  50.75000000
C    19.93000031  12.05000019  50.43000031
C    15.76000023  12.25000000  49.92000198
C    15.14999962  12.69999981  51.11999893
C    13.80000019  13.01000023  51.23000336
C    23.52999878  10.97000027  50.21999741
H    23.81491661  11.28341007  51.22433472
H    19.47000122  12.76999950  52.42000198
H    17.60000038  11.19999981  48.04000092
H    19.88000107  10.72000027  47.29000092
H    22.19000053  10.24000072  47.84999847
H    21.57999992  11.96000004  51.79000092
H    13.43999958  13.50000000  52.12999725
H    23.78000069   9.89999962  50.17000198
H    24.14999962  11.49000072  49.47999954
S    12.38999939  12.05000019  47.65999603
C     9.77000046  12.72999954  48.37999725
C    11.09000015  12.56999969  48.74000168
C    11.54999924  12.98999977  50.02999878
C    10.65000057  13.52000046  50.93999863
C     9.26000023  13.56999969  50.66999817
C     8.30000019  13.97999954  51.63000107
C     7.02000046  14.28999996  51.24000168
C     6.54999971  13.96000004  49.94999695
C     7.46000004  13.40999985  49.06999969
C     8.84000015  13.17999935  49.34000015
C    12.97999954  12.76000023  50.13000107
C    13.59000015  12.23000050  48.95999908
C    14.93000031  11.87999916  48.86000061
C     5.19000006  14.39000034  49.45999908
H     5.04729652  13.84772682  48.52529144
H     9.47000027  12.50000000  47.36000061
H    11.00000000  13.90999985  51.90000153
H     8.71000004  14.30999947  52.58999634
H     6.35999966  14.91000080  51.84000015
H     7.13999987  13.27000046  48.04999924
H    15.26999950  11.51999950  47.88999939
H     4.98000002  15.47000027  49.43000031
H     4.42000008  13.94999981  50.10000229
