96

S    12.18000031  16.62999916  44.40999985
C     9.56999969  17.22999954  45.15999603
C    10.80000019  16.72000122  45.52999878
C    11.14999962  16.45000076  46.88999939
C    10.18000031  16.59000015  47.84999847
C     8.85000038  16.93000031  47.49000168
C     7.77999973  16.97999954  48.43000031
C     6.51999998  17.31999969  48.01000214
C     6.28000021  17.87999916  46.72999954
C     7.30000019  17.90999985  45.80999756
C     8.53999996  17.28999901  46.12999725
C    12.58999920  16.32999992  47.09999847
C    13.22000027  16.50000000  45.84000015
C    14.60000038  16.47999954  45.76000214
C     4.88999987  18.13999939  46.19999695
H     4.56996393  17.43592072  45.43191528
H     9.46000004  17.59000015  44.13999939
H    10.47000027  16.45000076  48.88999939
H     8.05999947  16.62999916  49.41999817
H     5.69000006  17.12000084  48.68999863
H     7.11999989  18.45999908  44.88999939
H    15.03999901  16.61000061  44.77000427
H     4.21000004  18.19000053  47.06999969
H     4.90999985  19.12999916  45.75000000
S    15.88999939  15.59999943  49.45000076
C    18.47999954  15.24000072  48.44999695
C    17.20000076  15.70000076  48.26000214
C    16.81999969  16.20000076  46.97000122
C    17.76000023  16.26000023  45.96000290
C    19.10000038  15.85000038  46.17000198
C    20.09000015  15.77999973  45.14999771
C    21.35000038  15.29999924  45.40999985
C    21.68999863  14.80000019  46.69000244
C    20.81000137  14.91000080  47.75000000
C    19.48999977  15.34999943  47.45999908
C    15.36999893  16.18000031  46.88999939
C    14.73999977  15.97000027  48.15000153
C    13.35999966  16.15999985  48.26000214
C    23.12999916  14.42000008  46.95999908
H    23.42852020  14.95307446  47.86267090
H    18.59000015  14.78999996  49.43999863
H    17.28000069  16.53000069  45.01999664
H    19.79999924  16.20000076  44.19000244
H    22.14999962  15.36999893  44.68000031
H    21.12999916  14.63999939  48.75000000
H    12.81000042  16.01000023  49.18000031
H    23.77000046  14.63999939  46.10000229
H    23.26000023  13.36999989  47.23999786
S    16.13999939  13.45999908  52.72999573
C    18.78999901  12.71000004  52.02999878
C    17.43999863  12.74000072  51.76000214
C    16.90000153  12.20000076  50.54999924
C    17.73999977  11.69000053  49.59000015
C    19.13999939  11.78999996  49.79000092
C    20.10000038  11.39000034  48.81999969
C    21.42000008  11.17000008  49.10999680
C    21.88999939  11.47999954  50.41999817
C    21.07999992  12.13999939  51.31999969
C    19.69000053  12.20999908  51.04999924
C    15.48999977  12.51000023  50.33000183
C    14.93999958  13.15999985  51.45999908
C    13.68000031  13.73999977  51.44000244
C    23.38000107  11.31000042  50.61999893
H    23.70721626  11.60876274  51.61587524
H    19.27999878  13.20000076  52.87000275
H    17.42000008  11.56000042  48.55999756
H    19.63999939  10.98999977  47.91999817
H    22.06000137  10.69000053  48.36999893
H    21.34000015  12.56000042  52.29000092
H    13.31999969  14.40000057  52.22000122
H    23.57000160  10.26000023  50.35999680
H    23.78000069  11.80999947  49.73999786
S    12.25000000  12.63000011  47.90999985
C     9.59999943  13.15999985  48.64999771
C    10.93999958  13.32999992  48.88999939
C    11.36999989  13.78000069  50.18000031
C    10.43000031  14.27000046  51.06999969
C     9.04999924  14.06999969  50.84999847
C     8.05000019  14.42999935  51.79999924
C     6.71999979  14.26000023  51.51000214
C     6.30000019  13.80000019  50.22999573
C     7.22000027  13.30999947  49.33000183
C     8.60999966  13.50000000  49.59999847
C    12.77999973  13.47000027  50.40000153
C    13.38999939  12.93000031  49.22999954
C    14.65999985  12.35999966  49.20999908
C     4.84000015  13.90999985  49.86999893
H     4.59104109  13.63258934  48.84571075
H     9.30000019  12.67000008  47.72999573
H    10.73999977  14.37999916  52.11000061
H     8.36000061  14.92000008  52.71999741
H     5.92000008  14.65999985  52.11999893
H     6.78999996  13.17000008  48.34999847
H    15.14999962  11.87000084  48.37999725
H     4.65000010  14.98000050  50.00999832
H     4.25000000  13.23999977  50.52000046
