96

S    12.25999928  17.02000046  44.34000015
C     9.52999973  17.22999954  45.00999832
C    10.81999969  16.90999985  45.38000107
C    11.10000038  16.48999977  46.72000122
C    10.07999992  16.26000023  47.63000107
C     8.76000023  16.62999916  47.27000427
C     7.73000002  16.62999916  48.25000000
C     6.43000031  16.90000153  47.90000153
C     6.17000008  17.40999985  46.59999847
C     7.13999987  17.43000031  45.61999893
C     8.47000027  17.04000092  45.93000031
C    12.53999901  16.35000038  46.88999939
C    13.28999996  16.51000023  45.68999863
C    14.67000008  16.36999893  45.61000061
C     4.75000000  17.79999924  46.27999878
H     4.39376020  17.37963676  45.33952713
H     9.36999989  17.50000000  43.96999741
H    10.29000092  15.92000008  48.63999939
H     8.09000015  16.28000069  49.22000122
H     5.60999966  16.87999916  48.60000229
H     7.00000000  17.77000046  44.59000015
H    15.26000023  16.55999947  44.72999954
H     4.11999989  17.39999962  47.08000183
H     4.65999985  18.89000130  46.18000031
S    15.69000053  15.47000027  49.31999969
C    18.39999962  15.42000008  48.68000031
C    17.12000084  15.72999954  48.29999924
C    16.84000015  16.09000015  46.93999863
C    17.87999916  16.18999863  46.04000092
C    19.22999954  16.02000046  46.43000031
C    20.30999947  16.06999969  45.50000000
C    21.54999924  15.62999916  45.87999725
C    21.84999847  15.27999973  47.22999954
C    20.84000015  15.34000015  48.15000153
C    19.48999977  15.60999966  47.78999710
C    15.39000034  16.18999863  46.79999924
C    14.63999939  15.85999966  47.95000076
C    13.25000000  15.93999958  48.02000046
C    23.29000092  15.00000000  47.60000229
H    23.48250961  15.14972973  48.66236877
H    18.54999924  14.98000050  49.65999985
H    17.75000000  16.38000107  44.98000336
H    20.17000008  16.25000000  44.43999863
H    22.46999931  15.70000076  45.30000305
H    21.04999924  15.13000011  49.20000076
H    12.60000038  15.57999992  48.81000137
H    23.97000122  15.71000004  47.11000061
H    23.62999916  14.01000023  47.27000427
S    12.22000027  17.38999939  51.07999802
C     9.47000027  17.54999924  51.68000031
C    10.75000000  17.17000008  52.04000092
C    11.10000038  16.70999908  53.34999847
C    10.10000038  16.54000092  54.29999924
C     8.76000023  16.84999847  53.96999741
C     7.73000002  16.87999916  54.94999695
C     6.43000031  17.11000061  54.59000015
C     6.12999964  17.63000107  53.29999924
C     7.13000011  17.76000023  52.36000061
C     8.46000004  17.35999870  52.65999603
C    12.53000069  16.72999954  53.61000061
C    13.27999973  16.90000153  52.42000198
C    14.67000008  16.88999939  52.43000031
C     4.69999981  17.90999985  52.90999985
H     4.48683786  17.68262672  51.86550903
H     9.31999969  18.19000053  50.80999756
H    10.38000011  16.39000130  55.34000015
H     8.03999996  16.72000122  55.97999954
H     5.59999990  16.92000008  55.26000214
H     6.90000010  18.30999947  51.44000244
H    15.32999992  17.18000031  51.60999680
H     4.05000019  17.19000053  53.43000031
H     4.50000000  18.89000130  53.36000061
S    15.48999977  15.77000046  56.19999695
C    18.20999908  15.43000031  55.58000183
C    16.95999908  15.88000107  55.20999908
C    16.69999886  16.39999962  53.89999771
C    17.75000000  16.42000008  53.02000046
C    19.03000069  15.92000008  53.36000061
C    20.07999802  15.90000057  52.39999771
C    21.31999969  15.44000053  52.76000214
C    21.67000008  15.14999962  54.10999680
C    20.65999985  15.14999962  55.05000305
C    19.32999992  15.53999996  54.72000122
C    15.26999950  16.54000092  53.63999939
C    14.52000046  16.35000038  54.82999802
C    13.14000034  16.51000023  54.86000061
C    22.95999908  14.44000053  54.43999863
H    23.34444237  14.85291958  55.37263107
H    18.39999962  14.84000015  56.46999741
H    17.53999901  16.56999969  51.95999908
H    19.88000107  16.32999992  51.42000198
H    22.09000015  15.32999992  52.01000214
H    20.81000137  14.73999977  56.04999924
H    12.61999989  16.44000053  55.80999756
H    23.62999916  14.55999947  53.57999802
H    22.81999969  13.35999966  54.58000183
