96

S    12.53000069  17.45000076  44.66999817
C     9.81999969  17.65999985  45.33000183
C    11.05999947  17.12000084  45.59999847
C    11.23999977  16.35000038  46.79000092
C    10.22999954  16.14999962  47.71999741
C     8.97000027  16.73999977  47.48000336
C     7.86000013  16.56999969  48.36000061
C     6.61000013  17.05999947  48.09000015
C     6.40999985  17.72999954  46.84999847
C     7.46000004  17.95999908  46.00000000
C     8.76000023  17.42000008  46.23000336
C    12.65999985  16.09000015  46.93000031
C    13.50000000  16.60000038  45.90000153
C    14.88999939  16.68000031  45.87999725
C     5.01999950  18.12999916  46.39999771
H     4.62921095  17.59710693  45.53315735
H     9.59000015  18.39999962  44.56999969
H    10.52999973  15.65999985  48.64999771
H     7.97999954  16.00000000  49.27999878
H     5.78999996  16.93000031  48.79000092
H     7.34000015  18.47999954  45.05000305
H    15.44999981  17.01000023  45.01999664
H     4.33999968  18.02999878  47.25999832
H     5.09999990  19.19999886  46.18999863
S    15.62999916  15.52999973  49.61999893
C    18.45000076  15.62999916  49.13999939
C    17.14999962  15.82999992  48.75000000
C    16.94000053  16.32999992  47.43000031
C    18.01000023  16.55999947  46.59000015
C    19.29999924  16.03000069  46.86000061
C    20.29000092  15.95999908  45.84000015
C    21.53000069  15.47000027  46.14999771
C    21.80000114  15.10000038  47.50000000
C    20.82999992  15.08999920  48.47999954
C    19.52999878  15.62000084  48.22000122
C    15.52000046  16.36999893  47.09000015
C    14.68999958  15.98000050  48.18000031
C    13.31999969  15.77999973  48.11999893
C    23.22000122  14.65999985  47.76000214
H    23.67524719  15.20772076  48.58514023
H    18.63000107  15.25000000  50.13999939
H    17.80999947  16.84999847  45.56000137
H    20.00999832  16.51000023  44.93999863
H    22.27999878  15.36999893  45.37000275
H    20.97999954  14.56999969  49.41999817
H    12.68000031  15.57999992  48.96999741
H    23.75999832  14.80999947  46.81000137
H    23.23999786  13.59000015  47.98999786
S    12.23999977  17.31999969  51.12999725
C     9.53999996  17.64000130  51.73999786
C    10.78999996  17.23999977  52.15999985
C    11.09000015  16.86000061  53.50000000
C    10.01999950  16.81999969  54.36999893
C     8.71000004  17.18000031  53.95999908
C     7.59000015  17.06999969  54.84000397
C     6.30999994  17.46000099  54.54999924
C     6.10000038  17.92000008  53.22000122
C     7.11999989  18.04999924  52.30999756
C     8.43000031  17.56999969  52.61000061
C    12.51999950  16.69000053  53.69999695
C    13.27000046  16.90000153  52.51999664
C    14.65999985  16.87999916  52.51999664
C     4.71000004  18.37000084  52.83000183
H     4.37599039  17.68776703  52.04827499
H     9.42000008  18.02000046  50.72999954
H    10.13000011  16.54999924  55.41999817
H     7.82000017  16.70999908  55.84000015
H     5.53999996  17.40999985  55.31999969
H     7.13999987  18.50000000  51.31999969
H    15.29000092  16.95000076  51.63999939
H     4.09999990  18.30999947  53.73000336
H     4.73000002  19.42000008  52.50000000
S    15.53999996  15.81999969  56.25999832
C    18.22000122  15.21000004  55.61000061
C    17.01000023  15.75000000  55.26000214
C    16.73999977  16.27000046  53.95000076
C    17.75000000  16.29999924  53.01000214
C    19.04999924  15.88000107  53.39000320
C    20.17000008  16.11999893  52.54000092
C    21.38999939  15.53999996  52.81000137
C    21.65999985  14.89999962  54.05000305
C    20.61000061  14.80999947  54.92000198
C    19.29000092  15.27999973  54.68000031
C    15.34000015  16.57999992  53.70999908
C    14.55999947  16.35000038  54.87999725
C    13.17999935  16.46000099  54.92000198
C    23.06999969  14.47000027  54.36999893
H    23.45948982  14.97279835  55.25520706
H    18.29000092  14.77000046  56.59999847
H    17.61999893  16.63999939  51.98999786
H    19.95000076  16.60000038  51.59000015
H    22.23999977  15.62999916  52.14000320
H    20.72000122  14.28999996  55.86999893
H    12.71999931  16.21999931  55.87999725
H    23.62999916  14.60999966  53.43999863
H    23.05999947  13.38000107  54.54999924
