96

S    12.43999958  16.54000092  44.18000031
C     9.75000000  16.81999969  44.86000061
C    11.02000046  16.45000076  45.25000000
C    11.38000011  16.10999870  46.59000015
C    10.36000061  16.05999947  47.51999664
C     9.01000023  16.31999969  47.18000031
C     7.96999979  16.36999893  48.15000153
C     6.69000053  16.61999893  47.70999908
C     6.39999962  16.98999977  46.37000275
C     7.40000010  17.09000015  45.44000244
C     8.73000050  16.79000092  45.84999847
C    12.81999969  16.03999901  46.73999786
C    13.53999996  16.31000137  45.54999924
C    14.93000031  16.26000023  45.45999908
C     5.05000019  17.57999992  46.00999832
H     4.54518509  16.97564316  45.25632858
H     9.52999973  17.04000092  43.81999969
H    10.65999985  15.85999966  48.54999924
H     8.11999989  16.25000000  49.22000122
H     5.93999958  16.94000053  48.40999985
H     7.16000032  17.47999954  44.45000076
H    15.29000092  16.22999954  44.43999863
H     4.44000006  17.63000107  46.91999817
H     5.13000011  18.60999870  45.65000153
S    16.09000015  15.67000008  49.26000214
C    18.71000099  15.03999901  48.40000153
C    17.43000031  15.44999981  48.11000061
C    17.04000092  15.82999992  46.79000092
C    17.93000031  15.65999985  45.73999786
C    19.29000092  15.44999981  46.06999969
C    20.29000092  15.52000046  45.06000137
C    21.61000061  15.29000092  45.35999680
C    21.97999954  14.85000038  46.65999985
C    21.04999924  14.65000057  47.64999771
C    19.70999908  15.06000042  47.38999939
C    15.62000084  16.11999893  46.66999817
C    14.96000099  15.93000031  47.90999985
C    13.56999969  15.85000038  47.90999985
C    23.43000031  14.52000046  46.93999863
H    23.71588898  14.97027779  47.89058685
H    18.96000099  14.63999939  49.38000107
H    17.68000031  15.71000004  44.68999863
H    19.95000076  15.72999954  44.03999710
H    22.34999847  15.32999992  44.56999969
H    21.25000000  14.17000008  48.60000229
H    13.03999996  15.85999966  48.86000061
H    24.04999924  14.84000015  46.09000397
H    23.57999992  13.43999958  46.90000153
S    11.79999924  17.01000023  51.12999725
C     9.17000008  17.61999893  51.93999863
C    10.44999981  17.21999931  52.25999832
C    10.80999947  17.01000023  53.62999725
C     9.88000011  17.07999992  54.65000153
C     8.51000023  17.26000023  54.31999969
C     7.42999983  17.13000107  55.24000168
C     6.12999964  17.40999985  54.88999939
C     5.82000017  17.64999962  53.53000259
C     6.80999994  17.63000107  52.56999969
C     8.18000031  17.53000069  52.95000076
C    12.25999928  16.86000061  53.74000168
C    12.92000008  16.79000092  52.49000168
C    14.28999996  16.63999939  52.34000397
C     4.42999983  18.09000015  53.11999893
H     4.03841209  17.50617790  52.28698730
H     8.86999989  17.86000061  50.91999817
H     9.96000004  16.77000046  55.68000031
H     7.76000023  16.86000061  56.23000336
H     5.45000029  17.76000023  55.66999817
H     6.58999968  17.97000122  51.56000137
H    14.82999992  16.56999969  51.39999771
H     3.73000002  17.97999954  53.95000076
H     4.42000008  19.12999916  52.77000046
S    15.52999973  16.22999954  56.10000229
C    18.11000061  15.62000084  55.31999969
C    16.87000084  16.10999870  54.94999695
C    16.51000023  16.36000061  53.59000397
C    17.50000000  16.22999954  52.63000107
C    18.84000015  15.90000057  52.95999908
C    19.84000015  15.82999992  51.95000076
C    21.11999893  15.54999924  52.36000061
C    21.38999939  15.24000072  53.72000122
C    20.46999931  15.32999992  54.73999786
C    19.13999939  15.67000008  54.34999847
C    15.06000042  16.45000076  53.50000000
C    14.40000057  16.52000046  54.75000000
C    13.03999996  16.73999977  54.89999771
C    22.75000000  14.63000107  53.95999908
H    23.07665443  14.97795677  54.93996048
H    18.22999954  15.06999969  56.25000000
H    17.21999931  16.28999901  51.59000015
H    19.52999878  15.93000031  50.91999817
H    21.88999939  15.26000023  51.65000153
H    20.73999786  15.06000042  55.76000214
H    12.56999969  16.51000023  55.84999847
H    23.43000031  15.00000000  53.18000031
H    22.63000107  13.53999996  53.83999634
