96

S    12.25999928  16.87999916  44.40999985
C     9.61000061  17.46000099  45.30000305
C    10.88999939  16.98999977  45.52999878
C    11.21000099  16.46999931  46.81999969
C    10.18000031  16.18999863  47.70000076
C     8.85000038  16.64999962  47.56000137
C     7.76000023  16.42000008  48.44999695
C     6.48000002  16.77999878  48.11000061
C     6.23000050  17.53000069  46.93000031
C     7.30000019  17.79999924  46.10000229
C     8.60999966  17.28000069  46.29000092
C    12.63000011  16.14999962  46.90000153
C    13.32999992  16.25000000  45.66999817
C    14.70999908  16.21999931  45.56999969
C     4.82999992  17.86000061  46.45999908
H     4.55390835  17.28658104  45.57509232
H     9.32999992  17.76000023  44.29000092
H    10.38000011  15.46000004  48.48999786
H     7.97999954  15.85999966  49.36000061
H     5.65000010  16.42000008  48.70999908
H     7.07999992  18.39999962  45.22999573
H    15.14999962  16.46000099  44.59999847
H     4.09999990  17.67000008  47.25000000
H     4.90999985  18.94000053  46.26999664
S    15.88999939  15.52999973  49.26000214
C    18.53000069  14.86999989  48.56999969
C    17.28999901  15.31999969  48.18999863
C    16.87000084  15.67000008  46.86000061
C    17.86999893  15.71000004  45.90000153
C    19.19999886  15.34999943  46.20999908
C    20.17000008  15.29999924  45.17000198
C    21.42000008  14.81999969  45.47000122
C    21.83000183  14.55999947  46.81000137
C    20.86000061  14.48999977  47.77999878
C    19.52000046  14.92000008  47.55000305
C    15.44999981  15.93999958  46.72999954
C    14.73999977  15.88999939  47.95999908
C    13.35999966  15.97000027  48.08000183
C    23.21000099  14.06000042  47.14000320
H    23.50819778  14.60669804  48.03459930
H    18.73999977  14.57999992  49.59000015
H    17.53999901  15.78999996  44.86999893
H    20.03000069  15.71000004  44.16999817
H    22.17000008  14.85999966  44.68000031
H    21.09000015  14.06999969  48.75000000
H    12.77999973  15.85999966  48.99000168
H    23.88000107  14.15999985  46.27999878
H    23.16999817  12.96000004  47.21000290
S    15.90000057  13.02000046  52.18999863
C    18.46999931  12.35999966  51.42000198
C    17.13999939  12.38999939  51.09000397
C    16.68000031  11.97999954  49.79000092
C    17.60000038  11.59000015  48.83999634
C    18.95000076  11.40999985  49.20000076
C    19.89999962  10.90000057  48.27000046
C    21.21000099  10.60999966  48.53000259
C    21.64999962  11.05000019  49.80999756
C    20.79999924  11.64000034  50.72000122
C    19.42000008  11.87000084  50.48999786
C    15.25000000  12.27000046  49.72000122
C    14.70999908  12.86999893  50.89000320
C    13.35999966  13.19000053  51.02000427
C    23.09999847  10.77999973  50.13999939
H    23.40625954  10.89395714  51.17986298
H    18.81999969  12.76000023  52.36999893
H    17.17000008  11.05999947  47.98999786
H    19.60000038  10.57999992  47.27000427
H    21.81999969  10.24000072  47.70999908
H    21.14999962  11.82999992  51.72999954
H    13.09000015  13.71000099  51.93000031
H    23.32999992   9.73999977  49.86999893
H    23.69999886  11.38000011  49.43999863
S    11.82999992  12.18000031  47.51999664
C     9.19999981  12.60000038  48.36999893
C    10.54999924  12.71999931  48.61999893
C    11.06999969  13.07999992  49.89999771
C    10.19000053  13.48000050  50.87999725
C     8.78999996  13.48000050  50.65999985
C     7.85000038  14.06000042  51.56000137
C     6.51999998  14.19999981  51.22000122
C     5.98999977  13.64999962  50.01999664
C     6.90000010  13.09000015  49.15999985
C     8.30000019  12.94000053  49.40999985
C    12.51999950  12.89999962  49.93999863
C    13.07999992  12.35999966  48.75999832
C    14.42000008  12.01000023  48.62999725
C     4.53999996  13.88000011  49.64000320
H     4.33230066  13.62216663  48.60150146
H     8.93000031  12.38999939  47.34000397
H    10.65999985  13.68999958  51.84000015
H     8.34000015  14.52000046  52.41000366
H     5.86999989  14.73000050  51.90000153
H     6.53999996  12.88000011  48.15999985
H    14.67000008  11.61000061  47.64999771
H     4.34999990  14.93999958  49.85000229
H     4.00999975  13.22000027  50.34000015
