96

S    12.50000000  17.12000084  44.16999817
C     9.89999962  17.78000069  45.06000137
C    11.16000080  17.28999901  45.31999969
C    11.50000000  16.84000015  46.63000107
C    10.47999954  16.77999878  47.56999969
C     9.13000011  17.12000084  47.34000397
C     8.00000000  16.92000008  48.18999863
C     6.75000000  17.35000038  47.81999969
C     6.51999998  17.95999908  46.56000137
C     7.57999992  18.13999939  45.70000076
C     8.88000011  17.71000099  46.04999924
C    12.89999962  16.44000053  46.72000122
C    13.55999947  16.54000092  45.47000122
C    14.94999981  16.43000031  45.40999985
C     5.09000015  18.25000000  46.16000366
H     4.86811018  17.72748566  45.22949600
H     9.84000015  18.20000076  44.06000137
H    10.64000034  16.21000099  48.47999954
H     8.10999966  16.42000008  49.15000153
H     5.95000029  17.12000084  48.52000427
H     7.40000010  18.48999977  44.68000031
H    15.47000027  16.72999954  44.50000000
H     4.40000010  17.94000053  46.95999908
H     5.05000019  19.34999847  46.07999802
S    15.98000050  15.65000057  49.15000153
C    18.70000076  15.26999950  48.47999954
C    17.39999962  15.50000000  48.09999847
C    17.09000015  15.73999977  46.72000122
C    18.12000084  15.67000008  45.79000092
C    19.45000076  15.34999943  46.13999939
C    20.53999901  15.54999924  45.22999573
C    21.83000183  15.42000008  45.68999863
C    22.10000038  15.07999992  47.04000092
C    21.09000015  14.98999977  47.95999908
C    19.76000023  15.27999973  47.54000092
C    15.67999935  16.05999947  46.53999710
C    14.93999958  15.92000008  47.74000168
C    13.56999969  16.05999947  47.88999939
C    23.54999924  14.84000015  47.43000031
H    23.70653152  15.03922176  48.49014664
H    18.89999962  15.27999973  49.54999924
H    17.81999969  16.05999947  44.81999969
H    20.36999893  15.78999996  44.19000244
H    22.55000114  15.17000008  44.91000366
H    21.22999954  14.78999996  49.02000046
H    12.96000004  16.11999893  48.77999878
H    24.23999977  15.47000027  46.86000061
H    23.78000069  13.82999992  47.08000183
S    11.92000008  17.52000046  50.86000061
C     9.15999985  17.90999985  51.55000305
C    10.43000031  17.46000099  51.83000183
C    10.67999935  16.77000046  53.06000137
C     9.68000031  16.64999962  54.01000214
C     8.38000011  17.14999962  53.75999832
C     7.37999964  16.90999985  54.73999786
C     6.09000015  17.34000015  54.54000092
C     5.77000046  18.07999992  53.36000061
C     6.76999998  18.25000000  52.43000031
C     8.10000038  17.76000023  52.49000168
C    12.10999966  16.52000046  53.25000000
C    12.92000008  16.76000023  52.11999893
C    14.30999947  16.75000000  52.12999725
C     4.34999990  18.42000008  53.00000000
H     4.04297733  17.82023430  52.14319229
H     8.94999981  18.38999939  50.59999847
H     9.89000034  16.05999947  54.88999939
H     7.53999996  16.35000038  55.65000153
H     5.26000023  17.13999939  55.20999908
H     6.57000017  18.65999985  51.44000244
H    14.75000000  17.02999878  51.18000031
H     3.68000007  18.40999985  53.87000275
H     4.30000019  19.47999954  52.71999741
S    15.21000004  15.81999969  55.86000061
C    17.92000008  15.47000027  55.26000214
C    16.69999886  16.01000023  54.91000366
C    16.43000031  16.44000053  53.57999802
C    17.52000046  16.62999916  52.76000214
C    18.79999924  16.11999893  53.09999847
C    19.77000046  15.92000008  52.08000183
C    21.00000000  15.39999962  52.39999771
C    21.31000137  14.96000099  53.72000122
C    20.31999969  14.98999977  54.65999985
C    19.04000092  15.54999924  54.40000153
C    14.98999977  16.46999931  53.31999969
C    14.19000053  16.21000099  54.45999908
C    12.79999924  16.28000069  54.43999863
C    22.69000053  14.44000053  54.05000305
H    23.01833153  14.84684467  55.00644302
H    18.04000092  14.85999966  56.14999771
H    17.42000008  16.90999985  51.70999908
H    19.57999992  16.18000031  51.04000092
H    21.87999916  15.26999950  51.77999878
H    20.48000145  14.40999985  55.56999969
H    12.18000031  16.10000038  55.31000137
H    23.38999939  14.61999989  53.22000122
H    22.72999954  13.34000015  54.08000183
