96

S    12.48999977  16.87000084  44.50000000
C     9.85000038  17.56999969  45.38000107
C    11.10999966  17.07999992  45.61000061
C    11.46999931  16.61000061  46.90999985
C    10.51000023  16.57999992  47.90000153
C     9.17000008  17.02000046  47.70999908
C     8.13000011  16.93000031  48.68000031
C     6.84999990  17.31999969  48.36000061
C     6.48999977  17.78000069  47.05999756
C     7.51999950  17.90999985  46.16000366
C     8.86999989  17.51000023  46.39999771
C    12.89000034  16.28000069  47.05999756
C    13.57999992  16.43000031  45.83000183
C    14.93000031  16.13999939  45.66999817
C     5.05999994  18.11000061  46.70000076
H     4.75459814  17.41396904  45.91873932
H     9.48000050  17.94000053  44.41999817
H    10.80999947  16.31999969  48.90999603
H     8.42000008  16.40999985  49.58000183
H     6.11999989  17.26000023  49.15999985
H     7.27999973  18.22999954  45.14999771
H    15.36000061  16.46000099  44.72999954
H     4.50000000  18.02000046  47.63999939
H     4.94999981  19.11999893  46.27999878
S    16.10999870  15.46000004  49.43000031
C    18.78999901  15.19999981  48.62999725
C    17.50000000  15.59999943  48.34000015
C    17.10000038  16.05999947  47.04999924
C    18.06999969  16.07999992  46.05999756
C    19.38999939  15.62999916  46.29000092
C    20.38999939  15.59999943  45.27999878
C    21.68000031  15.19000053  45.52999878
C    22.04000092  14.88000011  46.86999893
C    21.11000061  14.80999947  47.88999939
C    19.78999901  15.26000023  47.62000275
C    15.65999985  15.98999977  46.86000061
C    14.98999977  15.75000000  48.09000015
C    13.60999966  15.90000057  48.18999863
C    23.45000076  14.47999954  47.25999832
H    23.74065399  15.03295135  48.15323257
H    19.07999992  14.63999939  49.51000214
H    17.78000069  16.35000038  45.05000305
H    20.17999840  15.86999989  44.26000214
H    22.40999985  15.19000053  44.72999954
H    21.31999969  14.51000023  48.90999603
H    13.07000065  15.70000076  49.10999680
H    24.13000107  14.65000057  46.42000198
H    23.46999931  13.40000057  47.43999863
S    16.01000023  13.05999947  52.38999939
C    18.60999870  12.53000069  51.52999878
C    17.26000023  12.51000023  51.25999832
C    16.72000122  12.01000023  50.04000092
C    17.53999901  11.50000000  49.05000305
C    18.93000031  11.52999973  49.31000137
C    19.85000038  11.03000069  48.34999847
C    21.18999863  10.88999939  48.62999725
C    21.73000145  11.30000019  49.87999725
C    20.88999939  11.90000057  50.79000092
C    19.48999977  12.00000000  50.54999924
C    15.27999973  12.23000050  50.00000000
C    14.73000050  12.75000000  51.19999695
C    13.43000031  13.25000000  51.23000336
C    23.19000053  11.00000000  50.13000107
H    23.49622917  11.20652580  51.15550995
H    18.93000031  12.84000015  52.51999664
H    17.10000038  11.31000042  48.06999969
H    19.55000114  10.47000027  47.47000122
H    21.87999916  10.21000004  48.11999893
H    21.18999863  12.25999928  51.77000046
H    12.97999954  13.60000038  52.15999985
H    23.44000053   9.96000004  49.88999939
H    23.64000130  11.67000008  49.38999939
S    11.90000057  12.28999996  47.68000031
C     9.27999973  12.82999992  48.44999695
C    10.60999966  12.79999924  48.79000092
C    11.17000008  13.22000027  50.04000092
C    10.32999992  13.76000023  50.98999786
C     8.94999981  13.90999985  50.68999863
C     8.05000019  14.44000053  51.65999985
C     6.70000029  14.35999966  51.43000031
C     6.19000006  14.06000042  50.13999939
C     7.03999996  13.52000046  49.20999908
C     8.45000076  13.45999908  49.41999817
C    12.61999989  13.07000065  50.11000061
C    13.15000057  12.48999977  48.93000031
C    14.47000027  12.05000019  48.87000275
C     4.76000023  14.35999966  49.73999786
H     4.49674225  14.00424576  48.74388885
H     8.76999950  12.43000031  47.57999802
H    10.80000019  14.04999924  51.91999817
H     8.53999996  14.77000046  52.57999802
H     5.92000008  14.65000057  52.14000320
H     6.70000029  13.10999966  48.26000214
H    14.88999939  11.72999954  47.91999817
H     4.53999996  15.43000031  49.78000259
H     4.13000011  13.92000008  50.52000046
