96

S    12.28000069  16.92000008  43.75999832
C     9.70000076  17.52000046  44.61999893
C    10.95999908  17.05000114  44.93000031
C    11.28000069  16.67000008  46.26999664
C    10.31999969  16.62999916  47.25999832
C     9.00000000  17.04000092  46.93000031
C     7.99000025  16.97999954  47.93000031
C     6.67000008  17.18000031  47.60000229
C     6.32999992  17.63000107  46.30000305
C     7.30999994  17.81999969  45.35999680
C     8.67999935  17.48999977  45.61000061
C    12.71999931  16.46000099  46.35000229
C    13.38999939  16.62999916  45.11000061
C    14.78000069  16.57999992  45.05000305
C     4.90000010  18.04999924  46.04999924
H     4.55082560  17.59393501  45.12361908
H     9.52999973  17.97000122  43.64999771
H    10.54999924  16.54000092  48.31999969
H     8.17000008  16.77000046  48.99000168
H     6.01000023  17.20999908  48.47000122
H     7.13999987  18.27000046  44.38000107
H    15.34999943  16.87000084  44.16999817
H     4.19000006  17.79000092  46.84000015
H     4.90000010  19.14999962  45.98999786
S    15.88999939  15.95000076  48.81999969
C    18.53999901  15.31999969  48.09999847
C    17.28000069  15.75000000  47.74000168
C    16.95000076  15.95000076  46.36000061
C    17.98999977  15.88999939  45.45000076
C    19.34000015  15.62999916  45.80999756
C    20.42000008  15.53999996  44.88999939
C    21.70000076  15.24000072  45.28999710
C    21.90999985  14.77000046  46.60999680
C    20.86999893  14.68999958  47.50999832
C    19.60000038  15.24000072  47.16999817
C    15.52999973  16.22999954  46.18000031
C    14.84000015  16.22999954  47.41000366
C    13.45999908  16.40999985  47.52999878
C    23.29000092  14.26000023  46.93999863
H    23.66790390  14.77338028  47.82415390
H    18.71000099  14.80999947  49.03999710
H    17.72999954  15.98999977  44.40000153
H    20.07999802  15.71000004  43.87000275
H    22.53000069  15.24000072  44.59000015
H    20.92000008  14.28999996  48.53000259
H    13.09000015  16.39000130  48.54999924
H    23.88999939  14.42000008  46.03000259
H    23.22999954  13.15999985  46.98999786
S    11.77999973  17.29999924  50.65000153
C     9.17000008  17.94000053  51.37000275
C    10.31999969  17.25000000  51.65999985
C    10.64000034  16.68000031  52.93000031
C     9.61000061  16.54000092  53.83999634
C     8.31999969  17.06999969  53.55999756
C     7.25000000  16.87000084  54.47000122
C     6.01000023  17.43999863  54.26000214
C     5.78000021  18.12000084  53.04000092
C     6.81999969  18.31999969  52.16999817
C     8.14000034  17.79000092  52.32999802
C    12.06999969  16.51000023  53.15000153
C    12.82999992  16.90999985  52.02000046
C    14.22000027  16.81999969  51.97999954
C     4.41000032  18.55999947  52.56000137
H     3.99827194  17.82882881  51.86432266
H     8.94999981  18.45999908  50.44000244
H     9.82999992  16.13999939  54.82999802
H     7.50000000  16.28000069  55.34000015
H     5.26000023  17.35000038  55.04000092
H     6.67000008  18.76000023  51.18999863
H    14.78999996  17.04000092  51.07999802
H     3.76999998  18.54999924  53.43999863
H     4.44999981  19.60000038  52.21000290
S    15.21000004  15.69000053  55.70000076
C    17.87999916  15.27999973  54.99000168
C    16.63999939  15.78999996  54.66999817
C    16.31000137  16.23999977  53.34999847
C    17.32999992  16.38000107  52.42000198
C    18.60999870  15.88999939  52.75000000
C    19.65999985  15.95999908  51.79000092
C    20.90999985  15.44000053  52.04999924
C    21.19999886  14.85999966  53.30999756
C    20.17999840  14.67000008  54.22000122
C    18.89999962  15.25000000  54.01000214
C    14.88000011  16.45000076  53.15999985
C    14.17000008  16.18000031  54.34999847
C    12.77999973  16.31999969  54.34000015
C    22.60999870  14.57999992  53.79000092
H    22.87453461  15.24491119  54.61220169
H    18.04999924  14.85000038  55.97000122
H    17.10000038  16.81999969  51.45999908
H    19.42000008  16.29999924  50.79000092
H    21.63000107  15.57000065  51.25000000
H    20.32999992  14.30999947  55.22999573
H    12.30000019  16.18999863  55.31000137
H    23.43000031  14.68000031  53.08000183
H    22.59000015  13.53999996  54.15000153
