96

S    12.25999928  16.60000038  44.08000183
C     9.55999947  17.05000114  44.65999985
C    10.78999996  16.61000061  45.07999802
C    11.07999992  16.28000069  46.44000244
C    10.06999969  16.28000069  47.37999725
C     8.78999996  16.77000046  47.00000000
C     7.71000004  16.80999947  47.91999817
C     6.50000000  17.35000038  47.55000305
C     6.21999979  17.64000130  46.18999863
C     7.27999973  17.71999931  45.31000137
C     8.56999969  17.22999954  45.65999985
C    12.51999950  16.13999939  46.65999985
C    13.30000019  16.36000061  45.48999786
C    14.68999958  16.44000053  45.54999924
C     4.80999994  18.00000000  45.80999756
H     4.28716946  17.19455910  45.29423141
H     9.27999973  17.12000084  43.61000061
H    10.27999973  15.81999969  48.34000015
H     7.92999983  16.39000130  48.89999771
H     5.64000034  17.32999992  48.22999954
H     7.17999983  18.02999878  44.27000046
H    15.26000023  16.72999954  44.68000031
H     4.25000000  18.39999962  46.65999985
H     5.03999996  18.79999924  45.10000229
S    15.62000084  15.59999943  49.22000122
C    18.31999969  15.24000072  48.57999802
C    17.05999947  15.65000057  48.18999863
C    16.79999924  16.18999863  46.88999939
C    17.84000015  16.26000023  45.98999786
C    19.11000061  15.72000027  46.31000137
C    20.10999870  15.60999966  45.31000137
C    21.34000015  15.10000038  45.65999985
C    21.61999893  14.65000057  46.97000122
C    20.59999847  14.52999973  47.88000107
C    19.36000061  15.17000008  47.62000275
C    15.34999943  16.29999924  46.77999878
C    14.52000046  16.01000023  47.88999939
C    13.12999916  15.86999989  47.88999939
C    23.05000114  14.30999947  47.35000229
H    23.26274681  14.86314011  48.26481247
H    18.39999962  14.78999996  49.56999969
H    17.61999893  16.39000130  44.93999863
H    19.93999863  15.85000038  44.26000214
H    22.14999962  15.01999950  44.94999695
H    20.79999924  14.14000034  48.88000107
H    12.48999977  15.77000046  48.75000000
H    23.71999931  14.44000053  46.50000000
H    23.09999847  13.23999977  47.60000229
S    15.93999958  13.00000000  52.36999893
C    18.60999870  12.42000008  51.70999908
C    17.28000069  12.44999981  51.35000229
C    16.86000061  12.11999989  50.01999664
C    17.75000000  11.71000004  49.06000137
C    19.11999893  11.71000004  49.40999985
C    20.03999901  11.26999950  48.40999985
C    21.35000038  11.13000011  48.77999878
C    21.78999901  11.28999901  50.12000275
C    20.94000053  11.79999924  51.06999969
C    19.55999947  11.97999954  50.75000000
C    15.43000031  12.28999996  49.78000259
C    14.89999962  12.90999985  50.93999863
C    13.55999947  13.27999973  50.97999954
C    23.22000122  10.98000050  50.48999786
H    23.50469971  11.35722733  51.47221375
H    18.96000099  12.79000092  52.67000198
H    17.27000046  11.40999985  48.13000107
H    19.78000069  10.97000027  47.39999771
H    22.00000000  10.85000038  47.95000076
H    21.21999931  11.98999977  52.11000061
H    13.21000004  13.60999966  51.95000076
H    23.46999931   9.90999985  50.41999817
H    23.90999985  11.46999931  49.79000092
S    12.09000015  12.02999973  47.48000336
C     9.47000027  12.61000061  48.29999924
C    10.81999969  12.64999962  48.55999756
C    11.33999920  13.27999973  49.72999954
C    10.47000027  13.83999920  50.65000153
C     9.06999969  13.76000023  50.45000076
C     8.14999962  14.25000000  51.40999603
C     6.80000019  14.28999996  51.16000366
C     6.30000019  13.75000000  49.94999695
C     7.16000032  13.17000008  49.03999710
C     8.56999969  13.15000057  49.23999786
C    12.77999973  13.12999916  49.81999969
C    13.30999947  12.44999981  48.69999695
C    14.63000107  12.00000000  48.67000198
C     4.82999992  13.93000031  49.62999725
H     4.63755608  13.59500504  48.61075974
H     9.11000061  12.07999992  47.43000031
H    10.82999992  14.22999954  51.59999847
H     8.52999973  14.85999966  52.22999954
H     6.19999981  14.84000015  51.86999893
H     6.84999990  12.63000011  48.15000153
H    15.06000042  11.50000000  47.81000137
H     4.59000015  15.00000000  49.54000092
H     4.21999979  13.38999939  50.35999680
