96

S    12.56000042  17.38999939  44.15000153
C     9.78999996  17.47999954  44.78000259
C    11.07999992  17.12000084  45.10000229
C    11.39000034  16.61000061  46.39999771
C    10.44000053  16.46999931  47.39999771
C     9.09000015  16.77000046  47.11000061
C     7.99000025  16.56999969  48.00000000
C     6.71999979  16.95000076  47.64999771
C     6.46000004  17.56000137  46.38999939
C     7.50999975  17.79000092  45.54000092
C     8.82000065  17.29999924  45.79999924
C    12.82999992  16.59000015  46.63999939
C    13.60999966  16.95999908  45.51000214
C    15.00000000  16.95000076  45.58000183
C     5.07999992  18.13999939  46.14999771
H     4.55980158  17.44165039  45.49440384
H     9.59999943  17.90999985  43.80000305
H    10.67000008  15.95000076  48.33000183
H     8.21000004  16.36000061  49.05000305
H     5.89999962  16.80999947  48.34000015
H     7.42000008  18.32999992  44.59999847
H    15.62999916  17.19000053  44.72999954
H     4.59999990  18.20000076  47.12999725
H     5.36000013  19.13999939  45.77999878
S    15.82999992  15.26999950  49.13000107
C    18.55999947  15.14000034  48.53000259
C    17.29999924  15.55999947  48.18000031
C    17.06999969  16.21000099  46.91999817
C    18.12999916  16.29999924  46.04000092
C    19.43000031  15.85999966  46.37000275
C    20.50000000  16.05999947  45.45000076
C    21.76000214  15.62999916  45.77000046
C    22.00000000  14.96000099  47.00000000
C    20.97999954  14.77000046  47.90999985
C    19.67000008  15.25000000  47.64999771
C    15.65000057  16.46999931  46.72000122
C    14.88000011  15.98999977  47.81000137
C    13.50000000  16.10999870  47.77000046
C    23.38999939  14.51000023  47.39999771
H    23.75215149  15.08518028  48.25212097
H    18.59000015  14.52000046  49.41999817
H    17.94000053  16.63999939  45.01999664
H    20.30999947  16.50000000  44.47000122
H    22.56000137  15.62999916  45.04000092
H    21.14999962  14.32999992  48.88999939
H    12.97000027  15.71000004  48.62999725
H    24.01000023  14.70999908  46.52000046
H    23.48999977  13.45000076  47.67000198
S    11.69000053  16.90999985  50.86000061
C     9.15000057  17.64999962  51.76000214
C    10.39000034  17.12000084  52.04999924
C    10.72999954  16.65999985  53.36000061
C     9.77999973  16.62999916  54.36999893
C     8.51000023  17.20000076  54.13000107
C     7.46000004  17.09000015  55.07999802
C     6.21999979  17.57999992  54.75000000
C     5.91000032  18.12999916  53.47000122
C     6.91999960  18.26000023  52.55000305
C     8.22000027  17.73999977  52.83000183
C    12.11999989  16.23999977  53.41999817
C    12.76000023  16.32999992  52.15999985
C    14.14999962  16.35000038  52.14000320
C     4.48999977  18.20999908  52.97999954
H     4.18424749  17.73359489  52.04851913
H     8.73999977  17.94000053  50.79000092
H     9.89999962  16.03999901  55.27000046
H     7.57000017  16.60000038  56.04999924
H     5.40999985  17.43999863  55.45999908
H     6.80000019  18.78000069  51.59999847
H    14.63999939  16.45000076  51.18000031
H     3.93000007  17.71999931  53.79000092
H     4.15999985  19.26000023  52.90000153
S    15.21999931  15.81999969  56.00000000
C    17.86000061  15.50000000  55.28999710
C    16.60000038  15.88999939  54.88999939
C    16.29999924  16.10999870  53.50999832
C    17.28999901  16.11999893  52.54000092
C    18.56999969  15.65999985  52.91999817
C    19.70000076  15.57000065  52.04999924
C    20.93000031  15.05000019  52.36999893
C    21.14999962  14.60000038  53.69999695
C    20.06999969  14.61999989  54.55999756
C    18.84000015  15.29000092  54.27999878
C    14.85000038  16.14999962  53.34000015
C    14.18000031  15.93000031  54.56999969
C    12.79000092  15.88999939  54.59999847
C    22.56999969  14.34999943  54.15999985
H    22.79048729  14.96167469  55.03483582
H    18.04999924  15.18000031  56.31000137
H    17.17000008  16.26000023  51.46999741
H    19.45000076  15.90999985  51.04999924
H    21.70000076  14.93000031  51.62000275
H    20.23999977  14.32999992  55.59000015
H    12.23999977  15.82999992  55.52999878
H    23.26000023  14.63000107  53.34999847
H    22.78000069  13.31999969  54.45000076
