96

S    12.56999969  16.77000046  44.09999847
C     9.81000042  16.97000122  44.72000122
C    11.10999966  16.73999977  45.11000061
C    11.46999931  16.46000099  46.46999741
C    10.50000000  16.21999931  47.43000031
C     9.15999985  16.48999977  47.06999969
C     8.14999962  16.44000053  48.06999969
C     6.89000034  16.88999939  47.76000214
C     6.48999977  17.19000053  46.43000031
C     7.44999981  17.13999939  45.45000076
C     8.80000019  16.79000092  45.70999908
C    12.89999962  16.31999969  46.70999908
C    13.61999989  16.55999947  45.51000214
C    15.00000000  16.51000023  45.40999985
C     5.09999990  17.63000107  46.04000092
H     4.67324209  17.03965187  45.22916031
H     9.50000000  17.40999985  43.77999878
H    10.65000057  16.03999901  48.48999786
H     8.38999939  16.03999901  49.05000305
H     6.19000006  17.02999878  48.57999802
H     7.30000019  17.56999969  44.45999908
H    15.39999962  16.69999886  44.40999985
H     4.44000006  17.53999901  46.91999817
H     5.17000008  18.71000099  45.86999893
S    16.05999947  15.77999973  49.18000031
C    18.72999954  15.21000004  48.40000153
C    17.46000099  15.65999985  48.09999847
C    17.18000031  16.07999992  46.76000214
C    18.18000031  15.97000027  45.80999756
C    19.48999977  15.59000015  46.16000366
C    20.53999901  15.36999893  45.21999741
C    21.84999847  15.06000042  45.52999878
C    22.11999893  14.73999977  46.88999939
C    21.11000061  14.68000031  47.81999969
C    19.81999969  15.17000008  47.50000000
C    15.76000023  16.36999893  46.56999969
C    15.05000019  16.18000031  47.77999878
C    13.66000080  16.11999893  47.85999680
C    23.54000092  14.52000046  47.36000061
H    23.78981590  14.94825649  48.33071518
H    18.86999893  14.93000031  49.43999863
H    18.06999969  16.15999985  44.73999786
H    20.22999954  15.50000000  44.19000244
H    22.63999939  14.93000031  44.79999924
H    21.31000137  14.47000027  48.87000275
H    13.22999954  16.09000015  48.86000061
H    24.20999908  14.88999939  46.56999969
H    23.72999954  13.43999958  47.29999924
S    12.13000107  17.22999954  50.83000183
C     9.44999981  17.61999893  51.53999710
C    10.71000004  17.19000053  51.90000153
C    11.03999996  16.92000008  53.26000214
C    10.01999950  16.87999916  54.19000244
C     8.71000004  17.27000046  53.83999634
C     7.63999987  17.34000015  54.78000259
C     6.34999990  17.68000031  54.43999863
C     6.03999996  17.89999962  53.06999969
C     7.03000021  17.86000061  52.11000061
C     8.38000011  17.61000061  52.48000336
C    12.48000050  16.76000023  53.40999985
C    13.21000004  17.01000023  52.22000122
C    14.60000038  17.06999969  52.22999954
C     4.65000010  18.30999947  52.63999939
H     4.30104256  17.69042206  51.81389236
H     9.22999954  17.79999924  50.50000000
H    10.17000008  16.42000008  55.17000198
H     7.88000011  17.02999878  55.79000092
H     5.59000015  17.84000015  55.20000076
H     6.76999998  18.12000084  51.09000397
H    15.06000042  17.34000015  51.27999878
H     3.93000007  18.18000031  53.46000290
H     4.55000019  19.37999916  52.39999771
S    15.59999943  15.97000027  55.90999985
C    18.25000000  15.52999973  55.15999603
C    17.01000023  16.04999924  54.85000229
C    16.73999977  16.54000092  53.53000259
C    17.75000000  16.54000092  52.57999802
C    19.03000069  16.03000069  52.88000107
C    20.10000038  15.93000031  51.93999863
C    21.32999802  15.39999962  52.27000427
C    21.56999969  14.84000015  53.54999924
C    20.59000015  15.01000023  54.48999786
C    19.29000092  15.52999973  54.20999908
C    15.31000042  16.76000023  53.39000320
C    14.56999969  16.51000023  54.56999969
C    13.17999935  16.51000023  54.59999847
C    22.98000145  14.45000076  53.94000244
H    23.18694687  14.97093582  54.87482834
H    18.45999908  15.10000038  56.13999939
H    17.50000000  16.90999985  51.59000015
H    19.88000107  16.38000107  50.97999954
H    22.11999893  15.59000015  51.55000305
H    20.72000122  14.65999985  55.51000214
H    12.69999981  16.26000023  55.54999924
H    23.65999985  14.73000050  53.11999893
H    22.89999962  13.35999966  54.00000000
