96

S    12.10000038  16.75000000  44.22000122
C     9.43000031  17.05999947  45.11000061
C    10.73999977  16.70999908  45.34999847
C    11.13000011  16.38000107  46.69000244
C    10.22999954  16.25000000  47.72999573
C     8.88000011  16.53000069  47.42000198
C     7.88000011  16.60000038  48.43000031
C     6.61999989  17.11000061  48.23999786
C     6.19999981  17.52000046  46.95000076
C     7.11999989  17.46999931  45.93000031
C     8.45000076  17.02000046  46.13999939
C    12.56000042  16.13999939  46.81000137
C    13.21000004  16.44000053  45.58000183
C    14.59000015  16.46000099  45.48999786
C     4.79999971  18.04000092  46.70999908
H     4.43754005  17.75571823  45.72211838
H     9.13999939  17.52000046  44.16999817
H    10.52999973  15.98000050  48.74000168
H     8.19999981  16.51000023  49.47000122
H     5.92000008  17.19000053  49.06999969
H     6.89000034  17.87999916  44.94999695
H    15.07999992  16.70999908  44.54999924
H     4.05000019  17.65999985  47.42000198
H     4.72000027  19.11999893  46.88000107
S    15.82999992  15.65000057  49.20000076
C    18.55999947  15.78999996  48.54000092
C    17.23999977  15.85000038  48.13999939
C    16.79999924  16.07999992  46.79999924
C    17.77000046  16.23999977  45.81999969
C    19.13999939  16.13000107  46.14999771
C    20.09000015  15.93000031  45.10000229
C    21.40000153  15.65000057  45.38999939
C    21.84999847  15.47999954  46.72999954
C    20.89999962  15.53999996  47.71999741
C    19.52999878  15.85000038  47.50999832
C    15.36000061  16.11999893  46.60999680
C    14.70999908  16.01000023  47.87000275
C    13.32999992  16.03000069  47.97999954
C    23.32999992  15.29000092  46.98999786
H    23.73067665  15.61912823  47.94876480
H    18.97999954  15.52000046  49.50000000
H    17.56999969  16.15999985  44.75999832
H    19.68000031  16.21999931  44.13000107
H    22.13000107  15.44000053  44.61000061
H    21.18000031  15.26999950  48.73000336
H    12.86000061  16.05999947  48.95999908
H    23.88000107  15.71000004  46.13999939
H    23.57999992  14.22999954  46.88999939
S    12.02000046  17.18000031  51.23000336
C     9.38000011  17.53999901  51.83000183
C    10.62999916  17.27000046  52.32999802
C    10.97000027  16.86000061  53.66000366
C     9.92000008  16.57999992  54.50000000
C     8.61999989  16.93000031  54.06999969
C     7.53000021  16.90999985  54.99000168
C     6.28999996  17.43000031  54.68999863
C     5.98000002  17.86000061  53.36999893
C     6.97000027  17.79999924  52.42000198
C     8.30999947  17.45000076  52.76000214
C    12.39999962  16.57999992  53.80000305
C    13.09999943  16.80999947  52.58999634
C    14.47999954  16.87000084  52.56000137
C     4.72000027  18.60000038  52.97999954
H     4.16110325  17.95620728  52.30083466
H     9.19999981  17.93000031  50.83000183
H    10.18000031  16.23999977  55.50000000
H     7.79999971  16.79000092  56.03000259
H     5.59999990  17.68000031  55.48999786
H     6.80000019  18.27000046  51.45999908
H    14.94999981  17.13999939  51.62000275
H     4.19999981  18.77000046  53.93000031
H     5.05000019  19.56999969  52.60000229
S    15.53999996  15.52000046  56.14999771
C    18.20999908  15.19000053  55.37000275
C    16.97000122  15.72000027  55.12000275
C    16.65999985  16.34000015  53.86000061
C    17.71000099  16.61999893  53.00000000
C    19.02000046  16.17000008  53.27000046
C    20.10999870  16.36000061  52.36999893
C    21.32999802  15.75000000  52.56999969
C    21.55999947  15.03000069  53.76999664
C    20.55999947  14.82999992  54.68999863
C    19.26000023  15.36000061  54.43000031
C    15.21999931  16.46000099  53.68000031
C    14.48999977  16.10999870  54.84000397
C    13.09999943  16.09000015  54.91000366
C    22.93999863  14.53999996  54.15000153
H    23.21768951  15.00281525  55.09699249
H    18.38999939  14.68000031  56.31000137
H    17.52000046  17.05000114  52.01000214
H    19.92000008  16.97000122  51.50000000
H    22.20999908  15.95000076  51.95999908
H    20.62999916  14.07999992  55.47000122
H    12.60000038  15.67999935  55.77999878
H    23.52000046  14.91000080  53.29999924
H    22.98999977  13.45000076  54.23999786
