96

S    12.38000011  16.76000023  43.88999939
C     9.76000023  17.38000107  44.61999893
C    10.95000076  16.77999878  44.93999863
C    11.23000050  16.34000015  46.26999664
C    10.21000004  16.36999893  47.19999695
C     8.89999962  16.80999947  46.88999939
C     7.78999996  16.80999947  47.77999878
C     6.57000017  17.35000038  47.42000198
C     6.34999990  17.88999939  46.12999725
C     7.42000008  17.85000038  45.25000000
C     8.69000053  17.29999924  45.54999924
C    12.64000034  16.00000000  46.40999603
C    13.40999985  16.27000046  45.25000000
C    14.80000019  16.27000046  45.20000076
C     4.98000002  18.38000107  45.72000122
H     4.68781519  17.85976982  44.80781174
H     9.55999947  18.02999878  43.76999664
H    10.42000008  16.22999954  48.26000214
H     7.99000025  16.48999977  48.80000305
H     5.78999996  17.30999947  48.16999817
H     7.40000010  18.32999992  44.27999878
H    15.36999893  16.54000092  44.31000137
H     4.35999966  18.12000084  46.59000015
H     5.09999990  19.47000122  45.68000031
S    15.72000027  15.22999954  48.94000244
C    18.44000053  15.14999962  48.33000183
C    17.14999962  15.36000061  47.90000153
C    16.87999916  15.88000107  46.59999847
C    17.86000061  15.78999996  45.63000107
C    19.18000031  15.39999962  45.97000122
C    20.25000000  15.38000011  45.02999878
C    21.48999977  14.93000031  45.40000153
C    21.80999947  14.68999958  46.76000214
C    20.81999969  14.82999992  47.70000076
C    19.47999954  15.17000008  47.36000061
C    15.44000053  16.03000069  46.42000198
C    14.68999958  15.72999954  47.57999802
C    13.30000019  15.72999954  47.62000275
C    23.22999954  14.44000053  47.22999954
H    23.45120430  14.77537537  48.24325943
H    18.79999924  15.03000069  49.34999847
H    17.64999962  15.98000050  44.58000183
H    20.10000038  15.86999989  44.06999969
H    22.25000000  14.93000031  44.61999893
H    20.97999954  14.63000107  48.75999832
H    12.75000000  15.67000008  48.54999924
H    23.90999985  14.88000011  46.49000168
H    23.45000076  13.35999966  47.25000000
S    11.82000065  16.84000015  50.73999786
C     9.15999985  17.27000046  51.30000305
C    10.38000011  16.82999992  51.77000046
C    10.67999935  16.53000069  53.13999939
C     9.70000076  16.67000008  54.09999847
C     8.42000008  17.05999947  53.66000366
C     7.35000038  17.13000107  54.59999847
C     6.14000034  17.64000130  54.16999817
C     5.89999962  17.94000053  52.81000137
C     6.90999985  17.95999908  51.88000107
C     8.18000031  17.47999954  52.29999924
C    12.11999989  16.36999893  53.33000183
C    12.86999893  16.60000038  52.15000153
C    14.25000000  16.55999947  52.19999695
C     4.56999969  18.60999870  52.54000092
H     4.13765335  18.05007553  51.71074677
H     9.00000000  17.60000038  50.27000046
H     9.85999966  16.34000015  55.13000107
H     7.50000000  17.00000000  55.65999985
H     5.36000013  17.95999908  54.85000229
H     6.80000019  18.25000000  50.83000183
H    14.91000080  16.48999977  51.33999634
H     3.88999987  18.44000053  53.37999725
H     4.63000011  19.67000008  52.29000092
S    15.17000008  16.09000015  56.03000259
C    17.86000061  15.50000000  55.40999985
C    16.61000061  15.93000031  55.00999832
C    16.35000038  16.18999863  53.62999725
C    17.35999870  16.28000069  52.69000244
C    18.65999985  15.98999977  53.15000153
C    19.78999901  15.90999985  52.28000259
C    21.01000023  15.36999893  52.61000061
C    21.24000168  14.91000080  53.93000031
C    20.20000076  15.01000023  54.84000397
C    18.89999962  15.42000008  54.45000076
C    14.92000008  16.38000107  53.41999817
C    14.13000011  16.28999901  54.59999847
C    12.74000072  16.23999977  54.58000183
C    22.53999901  14.27000046  54.34999847
H    23.02234650  14.85874653  55.13026810
H    18.04999924  15.34999943  56.46999741
H    17.09000015  16.59000015  51.68000031
H    19.59000015  16.28000069  51.26999664
H    21.80999947  15.15999985  51.90999985
H    20.29999924  14.80000019  55.90000153
H    12.20999908  16.01000023  55.48999786
H    23.15999985  14.32999992  53.43999863
H    22.39999962  13.23999977  54.68000031
