96

S    12.57999992  16.54999924  44.36999893
C     9.86999989  16.81999969  44.99000168
C    11.10000038  16.29999924  45.31999969
C    11.42000008  15.93000031  46.66999817
C    10.40999985  15.88000107  47.61000061
C     9.09000015  16.29999924  47.30999756
C     8.00000000  16.40999985  48.20999908
C     6.77999973  16.97999954  47.93000031
C     6.54999971  17.40999985  46.59999847
C     7.59999990  17.43000031  45.72000122
C     8.85000038  16.79000092  45.97999954
C    12.86000061  16.02000046  46.88999939
C    13.66000080  16.29999924  45.75000000
C    15.05000019  16.18000031  45.73999786
C     5.17000008  17.82999992  46.12999725
H     4.93363094  17.38591194  45.16303635
H     9.73999977  17.27000046  44.02000046
H    10.62000084  15.52999973  48.61999893
H     8.21000004  16.02000046  49.20000076
H     6.09000015  17.10000038  48.76999664
H     7.48000050  17.86999893  44.72999954
H    15.59000015  16.38000107  44.81999969
H     4.42999983  17.42000008  46.83000183
H     5.07999992  18.92000008  46.24000168
S    15.97000027  15.15999985  49.43999863
C    18.64999962  14.70999908  48.67000198
C    17.38999939  15.19000053  48.37999725
C    17.09000015  15.67000008  47.06999969
C    18.04000092  15.75000000  46.06999969
C    19.37999916  15.44999981  46.38999939
C    20.45000076  15.52999973  45.45999908
C    21.71999931  15.18000031  45.84999847
C    22.01999855  14.75999928  47.18000031
C    20.97999954  14.55000019  48.06000137
C    19.64999962  14.86999989  47.68000031
C    15.65999985  15.90999985  46.97000122
C    14.89999962  15.75000000  48.15999985
C    13.50999928  15.77999973  48.11000061
C    23.45999908  14.65000057  47.60000229
H    23.63735008  14.80606747  48.66409302
H    18.98999977  14.39000034  49.65000153
H    17.77000046  16.04999924  45.05000305
H    20.12000084  15.80000019  44.45999908
H    22.53000069  15.19999981  45.13000107
H    21.25999832  14.19000053  49.05000305
H    12.90999985  15.52999973  48.97999573
H    24.13000107  15.21999931  46.95000076
H    23.81000137  13.61999989  47.43000031
S    11.92000008  16.51000023  51.24000168
C     9.25000000  17.09000015  51.93000031
C    10.48999977  16.57999992  52.28000259
C    10.80000019  16.13000107  53.60000229
C     9.77000046  15.98999977  54.51000214
C     8.51000023  16.57999992  54.26000214
C     7.46999979  16.67000008  55.22999573
C     6.26999950  17.22999954  54.86000061
C     5.98999977  17.68000031  53.54999924
C     6.97000027  17.56999969  52.58999634
C     8.27000046  17.12000084  52.95000076
C    12.23999977  15.98000050  53.77999878
C    13.00000000  16.06999969  52.58999634
C    14.37999916  16.22999954  52.62000275
C     4.56999969  18.12000084  53.27000046
H     4.21546078  17.64491844  52.35528946
H     9.07999992  17.26000023  50.87999725
H    10.05000019  15.59000015  55.48999786
H     7.72000027  16.28999901  56.22000122
H     5.51000023  17.13999939  55.63000107
H     6.70000029  17.93000031  51.59999847
H    14.82999992  16.35000038  51.63000107
H     3.84999990  17.82999992  54.05000305
H     4.55000019  19.22000122  53.25000000
S    15.36000061  15.36000061  56.37000275
C    18.12000084  15.08999920  55.77000046
C    16.84000015  15.43000031  55.40000153
C    16.47999954  15.75000000  54.05000305
C    17.46999931  15.85000038  53.09000015
C    18.78999901  15.46000004  53.36999893
C    19.93999863  15.62000084  52.52999878
C    21.17000198  15.07999992  52.81999969
C    21.35999870  14.44000053  54.08000183
C    20.31999969  14.40999985  54.98000336
C    19.05999947  15.00000000  54.71000290
C    15.06000042  15.98000050  53.81999969
C    14.30999947  15.81999969  55.00999832
C    12.92000008  15.80999947  54.99000168
C    22.76000023  14.06000042  54.50000000
H    23.14381218  14.70679665  55.28895187
H    18.22999954  14.89999962  56.83000183
H    17.20999908  16.18000031  52.08000183
H    19.89999962  16.21999931  51.63000107
H    22.06000137  15.15999985  52.19999695
H    20.42000008  14.18000031  56.04000092
H    12.38999939  15.60999966  55.91999817
H    23.46999931  14.19000053  53.68000031
H    22.80999947  13.01000023  54.81999969
