96

S    11.76000023  16.69000053  44.62999725
C     9.09000015  17.19000053  45.40999985
C    10.39000034  16.84999847  45.73999786
C    10.72999954  16.54000092  47.09000015
C     9.82999992  16.67000008  48.13000107
C     8.47999954  16.93000031  47.81999969
C     7.42000008  16.95999908  48.76999664
C     6.11000013  17.20000076  48.43000031
C     5.73999977  17.28999901  47.06999969
C     6.76000023  17.40999985  46.14999771
C     8.14000034  17.21999931  46.45000076
C    12.15000057  16.21000099  47.19999695
C    12.86000061  16.32999992  45.97999954
C    14.22999954  16.11999893  45.84999847
C     4.28999996  17.53000069  46.70999908
H     4.01317739  16.86278725  45.89373016
H     8.71999931  17.28000069  44.38999939
H    10.21999931  16.46000099  49.12000275
H     7.83999968  16.80999947  49.75999832
H     5.31000042  17.28999901  49.16999817
H     6.57000017  17.86999893  45.19000244
H    14.67000008  16.22999954  44.86999893
H     3.61999989  17.35999870  47.56000137
H     4.21999979  18.57999992  46.39999771
S    15.54999924  15.67999935  49.55999756
C    18.22000122  15.31999969  48.75999832
C    16.90999985  15.55999947  48.43000031
C    16.51000023  15.78999996  47.06999969
C    17.51000023  16.10000038  46.17000198
C    18.86999893  15.81999969  46.46999741
C    19.81999969  15.77000046  45.41999817
C    21.12999916  15.44000053  45.70000076
C    21.52000046  15.11000061  47.02000046
C    20.62000084  15.11999989  48.06000137
C    19.26000023  15.44000053  47.81000137
C    15.06000042  15.86999989  46.95000076
C    14.40000057  15.82999992  48.20999908
C    13.02000046  15.98000050  48.27000046
C    22.90999985  14.65000057  47.41000366
H    23.13750267  15.01258373  48.41243744
H    18.39999962  15.18000031  49.82999802
H    17.32999992  16.51000023  45.18000031
H    19.57999992  16.10000038  44.40999985
H    21.87000084  15.29999924  44.92000198
H    20.88999939  14.55999947  48.95000076
H    12.53999901  16.13000107  49.22999954
H    23.57000160  15.03000069  46.62000275
H    22.89999962  13.55000019  47.45999908
S    16.13999939  13.53999996  52.90000153
C    18.78999901  13.22999954  51.95999908
C    17.43999863  13.10999966  51.77000046
C    16.93000031  12.51999950  50.56999969
C    17.79999924  12.05999947  49.58000183
C    19.19000053  12.06999969  49.81999969
C    20.10000038  11.39999962  48.95000076
C    21.42999840  11.32999992  49.27999878
C    21.98999786  11.92000008  50.44000244
C    21.09000015  12.51000023  51.31000137
C    19.70000076  12.63000011  51.04999924
C    15.47999954  12.61999989  50.52000046
C    14.88999939  13.12999916  51.70000076
C    13.55000019  13.47000027  51.84000015
C    23.45000076  11.71000004  50.77000046
H    23.61410141  11.68859577  51.84736252
H    19.19999886  13.80000019  52.78999710
H    17.39999962  11.51000023  48.74000168
H    19.75000000  10.72999954  48.16999817
H    21.97999954  10.60999966  48.68000031
H    21.42999840  12.93000031  52.25000000
H    13.17000008  14.02999973  52.70000076
H    23.88000107  10.78999996  50.37000275
H    24.04999924  12.51000023  50.30000305
S    12.17000008  12.43000031  48.22000122
C     9.55999947  13.12999916  48.89999771
C    10.88000107  13.02000046  49.27999878
C    11.32999992  13.38000107  50.59000015
C    10.44000053  13.94999981  51.49000168
C     9.06999969  14.00000000  51.16000366
C     8.07999992  14.59000015  52.00000000
C     6.72999954  14.56999969  51.72000122
C     6.30000019  14.11000061  50.45000076
C     7.23999977  13.68000031  49.54000092
C     8.63000011  13.64999962  49.84000397
C    12.77999973  13.27000046  50.70000076
C    13.35999966  12.86999893  49.45999908
C    14.68000031  12.43999958  49.38999939
C     4.81999969  14.04999924  50.17000198
H     4.59297466  13.58176041  49.21223831
H     9.13999939  12.79999924  47.95000076
H    10.98000050  14.35999966  52.34000397
H     8.31999969  14.92000008  53.01000214
H     5.95000029  14.75000000  52.44999695
H     6.94999981  13.22000027  48.60000229
H    15.06000042  11.90999985  48.52000427
H     4.34999990  15.01999950  50.38000107
H     4.28000021  13.52000046  50.96000290
