96

S    12.61000061  16.92000008  44.09999847
C     9.96999931  17.34000015  44.81999969
C    11.21000099  16.86000061  45.19000244
C    11.49000072  16.43000031  46.52000046
C    10.44999981  16.34000015  47.43000031
C     9.15000057  16.68000031  47.00000000
C     8.15999985  16.76000023  48.02000046
C     6.90000010  17.19000053  47.69000244
C     6.56000042  17.67000008  46.39999771
C     7.55999994  17.72999954  45.45000076
C     8.85999966  17.20999908  45.68999863
C    12.90999985  16.15999985  46.68000031
C    13.61999989  16.43000031  45.47999954
C    15.00000000  16.53000069  45.34999847
C     5.10999966  18.01000023  46.18999863
H     4.70372200  17.51819038  45.30616379
H     9.70000076  17.81999969  43.88000107
H    10.60999966  16.15999985  48.48999786
H     8.47000027  16.76000023  49.06000137
H     6.19000006  17.42000008  48.47999954
H     7.46000004  18.15999985  44.45000076
H    15.44000053  16.86000061  44.41999817
H     4.48000002  17.82999992  47.06999969
H     5.00000000  19.07999992  45.96000290
S    16.22999954  15.55999947  49.02000046
C    18.78999901  14.96999931  48.09999847
C    17.56999969  15.55999947  47.85999680
C    17.15999985  15.93000031  46.53999710
C    18.13999939  15.88000107  45.56000137
C    19.45999908  15.44999981  45.79999924
C    20.48000145  15.48999977  44.79999924
C    21.77999878  15.14999962  45.08999634
C    22.04999924  14.46000004  46.30000305
C    21.05999947  14.29999924  47.25000000
C    19.76000023  14.85999966  47.06999969
C    15.72999954  16.15999985  46.49000168
C    15.07999992  16.01000023  47.75000000
C    13.69999981  15.93999958  47.81999969
C    23.47999954  14.25000000  46.75000000
H    23.64393997  14.74894810  47.70513153
H    18.96000099  14.46000004  49.05000305
H    17.86999893  16.14999962  44.54000092
H    20.34000015  15.92000008  43.81000137
H    22.53000069  15.39999962  44.34999847
H    21.38000107  14.07999992  48.27000046
H    13.15999985  15.80999947  48.75999832
H    24.30000114  14.59000015  46.10000229
H    23.64999962  13.17999935  46.90000153
S    15.90000057  13.34000015  52.29000092
C    18.48999977  12.61999989  51.55000305
C    17.14999962  12.64999962  51.24000168
C    16.64999962  12.07999992  50.01999664
C    17.53999901  11.52999973  49.10999680
C    18.92000008  11.44000053  49.40000153
C    19.84000015  10.69000053  48.61000061
C    21.18999863  10.65000057  48.82999802
C    21.68000031  11.36000061  49.95999908
C    20.79999924  12.02000046  50.77999878
C    19.38999939  12.02999973  50.63000107
C    15.26000023  12.44999981  49.80999756
C    14.73000050  13.02999973  50.98999786
C    13.42000008  13.48999977  51.03000259
C    23.19000053  11.28999901  50.10000229
H    23.60061455  11.61565971  51.05574417
H    18.89999962  13.00000000  52.48000336
H    17.10000038  10.95000076  48.29999924
H    19.47999954  10.15999985  47.72999573
H    21.83000183  10.14999962  48.11000061
H    21.28999901  12.51000023  51.62000275
H    13.00000000  13.73999977  52.00000000
H    23.38000107  10.21999931  49.95999908
H    23.61999893  11.79999924  49.22999954
S    11.90000057  12.17000008  47.57999802
C     9.27999973  12.86999893  48.30999756
C    10.62999916  12.94000053  48.54999924
C    11.16000080  13.45000076  49.78000259
C    10.24000072  13.86999989  50.72000122
C     8.85000038  13.94999981  50.44000244
C     7.94000053  14.48999977  51.38999939
C     6.58999968  14.59000015  51.12999725
C     6.11000013  14.19999981  49.85000229
C     6.93000031  13.50999928  49.00000000
C     8.34000015  13.43999958  49.20000076
C    12.61000061  13.32999992  49.89999771
C    13.12999916  12.65999985  48.76999664
C    14.42000008  12.15999985  48.73000336
C     4.63000011  14.34999943  49.58000183
H     4.40318584  13.96016312  48.58768845
H     8.90999985  12.48999977  47.36000061
H    10.57000065  14.23999977  51.69000244
H     8.30999947  14.70999908  52.38999939
H     5.88000011  14.75999928  51.93000031
H     6.47000027  13.12999916  48.09000015
H    14.73999977  11.51000023  47.90999985
H     4.51000023  15.43000031  49.45999908
H     3.88000011  13.96000004  50.28999710
