96

S    12.56999969  17.34000015  44.48999786
C     9.88000011  17.75000000  45.22999573
C    11.13000011  17.27000046  45.52999878
C    11.40999985  16.69999886  46.81000137
C    10.42000008  16.62999916  47.77999878
C     9.15000057  17.19000053  47.52999878
C     8.05999947  17.17000008  48.46000290
C     6.80999994  17.59000015  48.08000183
C     6.51000023  18.15000153  46.81000137
C     7.57000017  18.23999977  45.93999863
C     8.86999989  17.71999931  46.22000122
C    12.82999992  16.43000031  46.97999954
C    13.59000015  16.79000092  45.83000183
C    14.98000050  16.73999977  45.79000092
C     5.07999992  18.45999908  46.42000198
H     4.77279949  17.70985794  45.69129181
H     9.67000008  18.15000153  44.23999786
H    10.59000015  16.17000008  48.75000000
H     8.22000027  16.55999947  49.34000015
H     5.98000002  17.22999954  48.68999863
H     7.35000038  18.60999870  44.93999863
H    15.53999996  17.26000023  45.01999664
H     4.50000000  18.39999962  47.35000229
H     5.03000021  19.47999954  46.02000427
S    16.02000046  15.59999943  49.47999954
C    18.72999954  15.34000015  48.69999695
C    17.42000008  15.65000057  48.40000153
C    17.06999969  16.00000000  47.05999756
C    18.04000092  16.13000107  46.09000397
C    19.36000061  15.71000004  46.37000275
C    20.35000038  15.64000034  45.34000015
C    21.61000061  15.21999931  45.70000076
C    21.98999786  14.85000038  47.02000046
C    21.02000046  14.78000069  47.98999786
C    19.70999908  15.22999954  47.68000031
C    15.65999985  16.36000061  46.95999908
C    14.93999958  16.05999947  48.13999939
C    13.55000019  16.09000015  48.11999893
C    23.43000031  14.56999969  47.36000061
H    23.63686180  14.78399563  48.40857697
H    18.89999962  15.03999901  49.72999954
H    17.73999977  16.42000008  45.07999802
H    20.10000038  15.80000019  44.29999924
H    22.27000046  15.26000023  44.84000397
H    21.19999886  14.40000057  48.99000168
H    13.09999943  16.09000015  49.10999680
H    23.97000122  15.14999962  46.59999847
H    23.55999947  13.50000000  47.15000153
S    11.89000034  16.65999985  51.45000076
C     9.30000019  17.36999893  52.28000259
C    10.51000023  16.77999878  52.55000305
C    10.85999966  16.36999893  53.88000107
C     9.86999989  16.31000137  54.84000397
C     8.56999969  16.79000092  54.54000092
C     7.51999950  16.86000061  55.50000000
C     6.25000000  17.34000015  55.27999878
C     5.97000027  17.81999969  53.96999741
C     6.97000027  17.86999893  53.02000046
C     8.27999973  17.39999962  53.27000046
C    12.30000019  16.31999969  54.05000305
C    12.98999977  16.43000031  52.81999969
C    14.37999916  16.39999962  52.72999573
C     4.61000013  18.26000023  53.47999954
H     4.28282547  17.69811249  52.60516357
H     9.10000038  17.84000015  51.31999969
H     9.94000053  15.90000057  55.84999847
H     7.73999977  16.31999969  56.42000198
H     5.51000023  17.22999954  56.06999969
H     6.84000015  18.37000084  52.05999756
H    14.91000080  16.43000031  51.77999878
H     3.95000005  18.05999947  54.33000183
H     4.61000013  19.31999969  53.22999954
S    15.52000046  15.72999954  56.40999603
C    18.22999954  15.36999893  55.68999863
C    16.95999908  15.78999996  55.37000275
C    16.55999947  16.18000031  54.05000305
C    17.50000000  16.06999969  53.04999924
C    18.86000061  15.78999996  53.33000183
C    19.86999893  15.84000015  52.32999802
C    21.17000198  15.57000065  52.68000031
C    21.51000023  15.05000019  53.95999908
C    20.55000114  15.06999969  54.94999695
C    19.22000122  15.52000046  54.68999863
C    15.11000061  16.22999954  53.90999603
C    14.35999966  16.00000000  55.08999634
C    12.97999954  16.10000038  55.26000214
C    22.92000008  14.63000107  54.27000046
H    23.26896667  15.05730534  55.21007156
H    18.30000114  15.15999985  56.76000214
H    17.26000023  16.09000015  51.97999954
H    19.55999947  15.97000027  51.29000092
H    21.93000031  15.65000057  51.90999985
H    20.84000015  14.65999985  55.90999985
H    12.43000031  16.02000046  56.18999863
H    23.57000160  14.85999966  53.41999817
H    22.89999962  13.53999996  54.34999847
