96

S    12.22000027  16.69000053  44.15999985
C     9.55000019  17.05999947  44.85000229
C    10.77999973  16.54999924  45.18000031
C    11.10999966  15.98000050  46.45000076
C    10.14000034  15.92000008  47.43999863
C     8.86999989  16.48999977  47.18000031
C     7.83999968  16.54000092  48.15999985
C     6.65999985  17.19000053  47.87000275
C     6.38000011  17.82999992  46.63999939
C     7.35000038  17.72999954  45.66999817
C     8.59000015  17.07999992  45.90000153
C    12.55000019  15.88000107  46.65999985
C    13.27999973  16.14999962  45.47999954
C    14.65999985  16.01000023  45.43000031
C     4.92000008  18.02000046  46.29000092
H     4.69951248  17.48656273  45.36537552
H     9.44000053  17.56000137  43.88999939
H    10.36000061  15.40999985  48.36999893
H     8.11999989  16.31000137  49.18000031
H     5.84999990  17.28000069  48.57999802
H     7.09000015  17.81999969  44.61000061
H    15.22999954  16.21000099  44.52000046
H     4.32000017  17.61999893  47.11999893
H     4.69000006  19.06999969  46.09000397
S    15.73999977  15.19000053  49.16999817
C    18.40999985  14.72000027  48.40999985
C    17.12000084  15.05000019  48.06000137
C    16.82999992  15.44000053  46.72000122
C    17.79000092  15.46000004  45.72000122
C    19.10000038  15.05000019  46.06999969
C    20.22000122  15.11000061  45.20000076
C    21.52000046  14.85000038  45.56000137
C    21.77999878  14.53999996  46.91999817
C    20.76999855  14.50000000  47.85999680
C    19.44000053  14.73999977  47.43000031
C    15.40999985  15.72999954  46.58000183
C    14.70000076  15.59999943  47.78999710
C    13.30999947  15.72999954  47.83000183
C    23.18000031  14.15999985  47.35000229
H    23.48701096  14.68120289  48.25675201
H    18.67000008  14.32999992  49.38999939
H    17.60000038  15.95999908  44.77000427
H    20.00999832  15.44000053  44.18000031
H    22.39999962  14.84000015  44.92000198
H    21.02999878  14.22000027  48.87000275
H    12.88000011  15.64000034  48.81999969
H    23.90000153  14.30999947  46.53999710
H    23.26000023  13.07000065  47.50000000
S    11.76000023  16.73999977  50.90999985
C     9.09000015  17.25000000  51.62000275
C    10.36000061  16.87000084  51.98999786
C    10.70000076  16.63999939  53.36999893
C     9.67000008  16.57999992  54.29000092
C     8.30999947  16.77999878  53.95000076
C     7.36999989  17.15999985  54.94999695
C     6.11000013  17.56000137  54.55999756
C     5.80999947  17.89999962  53.22000122
C     6.81999969  17.81999969  52.29000092
C     8.05000019  17.15999985  52.57999802
C    12.13999939  16.52000046  53.54000092
C    12.84000015  16.54999924  52.30999756
C    14.22999954  16.56999969  52.22999954
C     4.42999983  18.38000107  52.81000137
H     4.05456924  17.74247742  52.00955582
H     8.84000015  17.71000099  50.66999817
H     9.76000023  16.79999924  55.34999847
H     7.69000006  16.93000031  55.96000290
H     5.31000042  17.75000000  55.27000046
H     6.90000010  18.17000008  51.26999664
H    14.82999992  16.54999924  51.31999969
H     3.81999993  18.30999947  53.72000122
H     4.46000004  19.42000008  52.47000122
S    15.29000092  15.62999916  55.96000290
C    17.89999962  15.18000031  55.27999878
C    16.70999908  15.78999996  54.92000198
C    16.36000061  16.14999962  53.57999802
C    17.30999947  16.05999947  52.56999969
C    18.59000015  15.55999947  52.90999985
C    19.55999947  15.47999954  51.86999893
C    20.76000023  14.92000008  52.22999954
C    21.11999893  14.47999954  53.54000092
C    20.13000107  14.48999977  54.48999786
C    18.86999893  15.11000061  54.25000000
C    14.93999958  16.44000053  53.41999817
C    14.26000023  16.21000099  54.64000320
C    12.86999893  16.31000137  54.71000290
C    22.55000114  14.19999981  53.93000031
H    22.78380394  14.68177605  54.87938309
H    18.15000153  14.68999958  56.20999908
H    17.05000114  16.43000031  51.58000183
H    19.22999954  15.72999954  50.86999893
H    21.53000069  14.92000008  51.45999908
H    20.36999893  14.07999992  55.45999908
H    12.27000046  16.18000031  55.61000061
H    23.19000053  14.47000027  53.08000183
H    22.56000137  13.12000084  54.09999847
