96

S    12.28999996  16.67000008  44.45999908
C     9.59000015  17.02000046  45.18000031
C    10.86999989  16.68000031  45.52999878
C    11.23999977  16.53000069  46.90000153
C    10.19999981  16.42000008  47.81000137
C     8.85999966  16.79999924  47.54000092
C     7.86999989  16.98999977  48.54000092
C     6.61999989  17.36999893  48.13000107
C     6.32000017  17.53999901  46.75000000
C     7.27999973  17.53999901  45.76000214
C     8.56999969  17.12000084  46.17000198
C    12.68000031  16.38000107  47.05999756
C    13.38000107  16.60000038  45.84999847
C    14.77000046  16.53000069  45.79999924
C     4.94000006  18.09999847  46.51000214
H     4.57524681  17.74955177  45.54447556
H     9.39999962  17.32999992  44.15000153
H    10.36999893  16.21999931  48.87000275
H     8.07999992  16.90999985  49.61000061
H     5.80999947  17.53000069  48.83999634
H     7.09999990  17.75000000  44.71000290
H    15.26999950  16.79000092  44.87999725
H     4.25000000  17.76000023  47.29999924
H     4.94000006  19.19999886  46.58000183
S    15.84000015  15.69000053  49.55999756
C    18.53999901  15.39000034  48.88999939
C    17.26000023  15.71000004  48.50000000
C    16.88999939  16.05999947  47.15999985
C    17.89999962  16.34000015  46.25000000
C    19.22999954  16.05999947  46.63000107
C    20.28000069  16.20000076  45.66999817
C    21.52000046  15.72000027  46.00999832
C    21.87000084  15.11000061  47.23999786
C    20.88000107  15.01000023  48.18000031
C    19.55999947  15.47999954  47.90000153
C    15.46000004  16.22999954  46.97999954
C    14.75999928  16.04999924  48.20000076
C    13.36999989  16.13000107  48.25000000
C    23.28000069  14.63999939  47.55000305
H    23.58001709  15.09716988  48.49291611
H    18.81999969  15.03000069  49.86999893
H    17.71999931  16.57999992  45.20999908
H    20.07999802  16.69000053  44.72000122
H    22.36000061  15.90000057  45.34000015
H    21.11999893  14.51000023  49.10999680
H    12.89000034  15.98000050  49.20999908
H    23.85000038  15.01000023  46.69000244
H    23.31999969  13.55999947  47.67000198
S    11.79999924  17.11000061  51.29000092
C     9.15000057  17.45000076  52.08000183
C    10.40999985  16.98999977  52.38999939
C    10.76000023  16.47999954  53.68000031
C     9.76000023  16.31000137  54.61999893
C     8.46000004  16.80999947  54.36999893
C     7.40999985  16.80999947  55.31999969
C     6.12999964  17.14999962  54.94999695
C     5.78000021  17.59000015  53.63999939
C     6.80000019  17.65999985  52.71999741
C     8.13000011  17.28999901  53.04999924
C    12.20000076  16.46000099  53.85000229
C    12.89000034  16.79000092  52.64999771
C    14.27000046  16.90000153  52.61000061
C     4.36999989  17.94000053  53.20999908
H     3.99900293  17.44771576  52.31104660
H     8.96000004  17.89999962  51.11000061
H     9.98999977  15.85999966  55.59000015
H     7.50000000  16.35000038  56.30000305
H     5.29999971  17.02999878  55.63999939
H     6.56000042  17.97000122  51.70000076
H    14.86999989  17.01000023  51.70999908
H     3.72000003  17.89999962  54.09000015
H     4.38000011  19.03000069  53.11000061
S    15.34999943  15.52999973  56.18999863
C    18.01000023  15.36999893  55.43000031
C    16.72999954  15.75000000  55.08999634
C    16.39999962  16.25000000  53.79000092
C    17.38999939  16.35000038  52.84000015
C    18.68999863  15.88000107  53.15000153
C    19.73999977  15.93999958  52.18999863
C    21.02000046  15.52999973  52.47000122
C    21.34000015  14.94999981  53.72000122
C    20.36000061  14.88999939  54.68999863
C    19.03000069  15.31999969  54.43999863
C    14.96999931  16.54999924  53.76999664
C    14.27000046  16.22999954  54.97000122
C    12.88000011  16.18000031  55.04000092
C    22.75000000  14.63000107  54.15000153
H    23.08357811  15.26166916  54.97330093
H    18.27000046  14.98999977  56.40999603
H    17.15999985  16.73999977  51.84999847
H    19.42000008  16.39999962  51.25999832
H    21.77999878  15.78999996  51.72999954
H    20.65999985  14.72000027  55.72000122
H    12.35000038  16.06999969  55.97999954
H    23.43000031  14.75000000  53.29999924
H    22.72000122  13.57999992  54.43999863
