96

S    12.17000008  17.12000084  44.27999878
C     9.48000050  17.65999985  44.89999771
C    10.71000004  17.18000031  45.28999710
C    11.03999996  16.82999992  46.63999939
C    10.05000019  16.90000153  47.60000229
C     8.73999977  17.27000046  47.21000290
C     7.60999966  17.01000023  48.04999924
C     6.30999994  17.21999931  47.64999771
C     6.05999994  17.71999931  46.33999634
C     7.09000015  17.89999962  45.45000076
C     8.43000031  17.65999985  45.86000061
C    12.46999931  16.77999878  46.88000107
C    13.22999954  16.97000122  45.68999863
C    14.61999989  17.00000000  45.68999863
C     4.61999989  18.05999947  46.03000259
H     4.36286449  17.87429047  44.98717117
H     9.22000027  17.94000053  43.88999939
H    10.18000031  16.61000061  48.63999939
H     7.86000013  16.63999939  49.03999710
H     5.47999954  17.04000092  48.33000183
H     7.04999971  18.18000031  44.40000153
H    15.19000053  16.95000076  44.77000427
H     3.98999977  17.48999977  46.72000122
H     4.59000015  19.13999939  46.24000168
S    15.47999954  15.59999943  49.25000000
C    18.20999908  15.19999981  48.60000229
C    16.97000122  15.72999954  48.29999924
C    16.69999886  16.36999893  47.04999924
C    17.69000053  16.52000046  46.09000397
C    18.97999954  16.01000023  46.38000107
C    20.10999870  16.21999931  45.52999878
C    21.31000137  15.62000084  45.81999969
C    21.52000046  14.75999928  46.93000031
C    20.45999908  14.65000057  47.81000137
C    19.19999886  15.25000000  47.57999802
C    15.29000092  16.65999985  46.86999893
C    14.53999996  16.53000069  48.06999969
C    13.15000057  16.61000061  48.09000015
C    22.92000008  14.37999916  47.36999893
H    23.19087982  14.95740318  48.25392532
H    18.34000015  14.73999977  49.56999969
H    17.38000107  16.97999954  45.15999603
H    20.00999832  16.69999886  44.55999756
H    22.14999962  15.73999977  45.13999939
H    20.65000153  14.17000008  48.76999664
H    12.53999901  16.35000038  48.95000076
H    23.46999931  14.80999947  46.52999878
H    23.12999916  13.30999947  47.48000336
S    15.95000076  13.15999985  52.15999985
C    18.57999992  12.72999954  51.33999634
C    17.23999977  12.71000004  51.02000427
C    16.73999977  12.17000008  49.79000092
C    17.64999962  11.76000023  48.83999634
C    19.04000092  11.78999996  49.13999939
C    19.93000031  11.28999901  48.15000153
C    21.22999954  11.00999928  48.50000000
C    21.70999908  11.49000072  49.75000000
C    20.90999985  12.05000019  50.72000122
C    19.51000023  12.13000107  50.45000076
C    15.29999924  12.30999947  49.66999817
C    14.77000046  12.86999893  50.86000061
C    13.43999958  13.22999954  51.00000000
C    23.18000031  11.32999992  50.04000092
H    23.43637848  11.70744419  51.02990341
H    18.88000107  13.12000084  52.30999756
H    17.32999992  11.28000069  47.90999985
H    19.62000084  11.13000011  47.11999893
H    21.81999969  10.52999973  47.71999741
H    21.25000000  12.53999901  51.63000107
H    12.98999977  13.57999992  51.91999817
H    23.47999954  10.29000092  49.87999725
H    23.80000114  11.80999947  49.27000046
S    11.92999935  12.31999969  47.38999939
C     9.30999947  12.96000004  48.15999985
C    10.65999985  12.96000004  48.46000290
C    11.17000008  13.27999973  49.75000000
C    10.26999950  13.67000008  50.72999954
C     8.88000011  13.81999969  50.50000000
C     8.00000000  14.27999973  51.52000046
C     6.70000029  14.57999992  51.16000366
C     6.15000010  14.06000042  49.97000122
C     7.03999996  13.50000000  49.06999969
C     8.46000004  13.45000076  49.18000031
C    12.60000038  13.03999996  49.89999771
C    13.12000084  12.51999950  48.68999863
C    14.44000053  12.09000015  48.57999802
C     4.73000002  14.45000076  49.61999893
H     4.33912039  14.07333374  48.67478180
H     8.93000031  12.30999947  47.37999725
H    10.54999924  13.85000038  51.77000046
H     8.34999943  14.68000031  52.47000122
H     6.05999994  15.11000061  51.86000061
H     6.63999987  13.22999954  48.09999847
H    14.88000011  11.82999992  47.62000275
H     4.71000004  15.53999996  49.52000046
H     4.00999975  14.19000053  50.40999985
