96

S    11.87000084  17.28999901  44.18000031
C     9.22000027  17.75000000  44.93999863
C    10.46000004  17.22999954  45.25000000
C    10.78999996  16.81999969  46.58000183
C     9.84000015  16.79999924  47.57999802
C     8.51000023  17.13999939  47.23999786
C     7.42999983  16.97999954  48.15999985
C     6.21000004  17.53999901  47.83000183
C     5.88000011  17.93000031  46.50000000
C     6.89000034  18.05999947  45.58000183
C     8.21000004  17.64999962  45.93000031
C    12.22000027  16.60000038  46.69000244
C    12.96000004  16.93000031  45.52999878
C    14.34999943  16.90999985  45.47999954
C     4.42999983  18.23999977  46.23000336
H     4.06070089  17.62923622  45.40617752
H     9.07999992  18.22000122  43.96999741
H    10.03000069  16.72000122  48.64999771
H     7.50000000  16.46999931  49.10999680
H     5.46000004  17.61000061  48.61000061
H     6.76999998  18.34000015  44.52999878
H    14.89999962  17.10000038  44.55999756
H     3.86000013  18.01000023  47.14000320
H     4.42000008  19.30999947  46.02000427
S    15.39000034  15.80000019  49.16999817
C    18.02000046  15.43000031  48.46000290
C    16.77000046  15.84000015  48.04999924
C    16.46999931  16.22999954  46.70999908
C    17.53000069  16.34000015  45.80999756
C    18.84000015  15.93999958  46.16000366
C    19.93999863  16.07999992  45.27000046
C    21.17000198  15.51000023  45.50000000
C    21.40000153  14.92000008  46.77000046
C    20.38999939  14.94999981  47.70999908
C    19.06999969  15.44000053  47.50000000
C    15.05000019  16.52000046  46.63000107
C    14.32999992  16.18000031  47.80000305
C    12.94000053  16.21999931  47.83000183
C    22.76000023  14.37999916  47.15000153
H    23.10228920  14.89343548  48.04851151
H    18.12000084  15.00000000  49.45000076
H    17.25000000  16.72000122  44.84000397
H    19.76000023  16.55999947  44.31999969
H    21.93000031  15.50000000  44.72000122
H    20.61000061  14.60000038  48.70999908
H    12.35000038  15.93999958  48.69999695
H    23.48999977  14.60999966  46.36000061
H    22.77000046  13.30000019  47.32999802
S    15.85999966  13.15000057  52.14000320
C    18.52000046  12.67000008  51.36000061
C    17.18000031  12.68000031  51.04999924
C    16.76000023  12.27000046  49.73999786
C    17.67000008  11.75000000  48.82999802
C    19.04999924  11.80999947  49.12000275
C    19.98999977  11.31000042  48.18000031
C    21.28000069  11.06999969  48.57999802
C    21.77000046  11.46000004  49.85000229
C    20.86000061  11.98999977  50.72999954
C    19.48999977  12.23000050  50.43000031
C    15.32999992  12.51000023  49.59000015
C    14.73999977  13.00000000  50.77999878
C    13.40999985  13.35999966  50.97000122
C    23.19000053  11.06999969  50.22999573
H    23.46869469  11.47732353  51.20185852
H    18.78000069  12.79999924  52.41000366
H    17.43999863  11.13999939  47.95999908
H    19.52000046  10.93000031  47.27000427
H    21.97000122  10.47999954  47.97000122
H    21.21000099  12.32999992  51.70000076
H    13.02000046  13.94000053  51.81000137
H    23.26999855   9.98000050  50.19000244
H    23.90000153  11.51999950  49.52000046
S    11.85999966  12.15999985  47.50999832
C     9.26999950  13.05999947  48.22999954
C    10.60999966  12.92000008  48.50999832
C    11.14999962  13.35000038  49.75999832
C    10.31000042  14.00000000  50.63999939
C     8.90999985  14.04999924  50.44000244
C     7.96999979  14.39000034  51.45000076
C     6.63999987  14.59000015  51.16000366
C     6.11999989  14.19000053  49.89999771
C     6.96000004  13.61999989  48.95999908
C     8.36000061  13.60000038  49.18000031
C    12.58999920  13.12999916  49.86000061
C    13.12999916  12.56000042  48.68000031
C    14.47000027  12.23999977  48.52000427
C     4.69000006  14.40000057  49.45999908
H     4.41330099  13.76855850  48.61571503
H     8.90999985  12.74000072  47.25999832
H    10.78999996  14.21000004  51.59000015
H     8.42000008  14.61999989  52.41000366
H     5.96000004  14.91000080  51.93999863
H     6.48000002  13.25000000  48.06000137
H    14.86999989  11.61999893  47.71999741
H     4.46999979  15.40999985  49.09999847
H     4.11999989  14.14999962  50.35999680
