96

S    12.28999996  16.84999847  44.22999954
C     9.68000031  17.35999870  45.00999832
C    10.90999985  16.84000015  45.34000015
C    11.19999981  16.46999931  46.69000244
C    10.25000000  16.54999924  47.69000244
C     9.00000000  17.13999939  47.38999939
C     7.96000004  17.23999977  48.36000061
C     6.67000008  17.39999962  47.91999817
C     6.34000015  17.73999977  46.56999969
C     7.36000013  17.81999969  45.65000153
C     8.67999935  17.42000008  46.02000427
C    12.64999962  16.39999962  46.88000107
C    13.31999969  16.46999931  45.63000107
C    14.70000076  16.43000031  45.50000000
C     4.90999985  18.09000015  46.23000336
H     4.66676283  17.53914070  45.32143784
H     9.46000004  17.69000053  44.00000000
H    10.51000023  16.27000046  48.70999908
H     8.27000046  16.97999954  49.36000061
H     5.86999989  17.27000046  48.63999939
H     7.21000004  18.18000031  44.64000320
H    15.19999981  16.60000038  44.54999924
H     4.21999979  17.72999954  47.00000000
H     4.76999998  19.17000008  46.09000397
S    15.93999958  16.15999985  49.23999786
C    18.60999870  15.57999992  48.46000290
C    17.34000015  15.98999977  48.15999985
C    16.88999939  16.26000023  46.81999969
C    17.80999947  16.23999977  45.79000092
C    19.18000031  15.98000050  46.05999756
C    20.25000000  15.90000057  45.13000107
C    21.52000046  15.47000027  45.43000031
C    21.81999969  15.03000069  46.73999786
C    20.86000061  15.17000008  47.71999741
C    19.55000114  15.62000084  47.39999771
C    15.44999981  16.25000000  46.66999817
C    14.75999928  16.18000031  47.90999985
C    13.40000057  16.39999962  48.06000137
C    23.16999817  14.45000076  47.09999847
H    23.41917038  14.88426876  48.06820679
H    18.93000031  15.29000092  49.45999908
H    17.43999863  16.43000031  44.78000259
H    20.05000114  16.17000008  44.09000015
H    22.19000053  15.26000023  44.59999847
H    21.04000092  14.82999992  48.74000168
H    12.88000011  16.46999931  49.01000214
H    23.90999985  14.70000076  46.32999802
H    23.18000031  13.35000038  47.15000153
S    16.14999962  13.12000084  52.47000122
C    18.79999924  12.64000034  51.63000107
C    17.46000099  12.69999981  51.33999634
C    16.95000076  12.48999977  50.01999664
C    17.81999969  12.23000050  48.97999573
C    19.19999886  12.02999973  49.25000000
C    20.13000107  11.56000042  48.29000092
C    21.47999954  11.49000072  48.54999924
C    21.94000053  11.71000004  49.86999893
C    21.07000160  12.13000107  50.86000061
C    19.69000053  12.34000015  50.56999969
C    15.51000023  12.67000008  49.97000122
C    14.93000031  13.12999916  51.18000031
C    13.56999969  13.40000057  51.31000137
C    23.34000015  11.28000069  50.22999573
H    23.61691475  11.47171021  51.26665497
H    19.11999893  12.77999973  52.65999603
H    17.35999870  11.90999985  48.04999924
H    19.64999962  11.26999950  47.36000061
H    22.26000023  11.21999931  47.84000015
H    21.34000015  12.11999989  51.90999985
H    13.17999935  13.73000050  52.27000427
H    23.48999977  10.21000004  50.05000305
H    24.13999939  11.69999981  49.61000061
S    12.05999947  12.60000038  47.75000000
C     9.42000008  13.12000084  48.60000229
C    10.77999973  13.12000084  48.86000061
C    11.31999969  13.53999996  50.11000061
C    10.48999977  13.96000004  51.13999939
C     9.10000038  14.06000042  50.90999985
C     8.22000027  14.60999966  51.88999939
C     6.86999989  14.78000069  51.66999817
C     6.30999994  14.27999973  50.45999908
C     7.17999983  13.68000031  49.58000183
C     8.60000038  13.53999996  49.66999817
C    12.76000023  13.32999992  50.18000031
C    13.31999969  12.84000015  48.96999741
C    14.65000057  12.43000031  48.88999939
C     4.86999989  14.53999996  50.06999969
H     4.62108946  14.00661945  49.15258408
H     9.01000023  13.03999996  47.60000229
H    10.90999985  14.25000000  52.09000015
H     8.57999992  14.82999992  52.88999939
H     6.25999975  15.39000034  52.32999802
H     6.78999996  13.43999958  48.60000229
H    15.01000023  11.92999935  48.00000000
H     4.76999998  15.62999916  49.93999863
H     4.15000010  14.35999966  50.86999893
