96

S    12.02000046  16.90000153  44.55999756
C     9.35000038  17.34000015  45.28999710
C    10.59000015  16.84000015  45.59999847
C    10.88999939  16.27000046  46.88999939
C     9.82999992  16.11999893  47.77000046
C     8.53999996  16.62999916  47.50999832
C     7.42000008  16.51000023  48.37999725
C     6.17000008  16.98999977  48.06999969
C     5.95000029  17.53000069  46.77000046
C     6.97000027  17.60000038  45.84999847
C     8.27999973  17.20999908  46.22000122
C    12.30999947  16.11999893  47.15999985
C    13.00000000  16.45000076  45.96000290
C    14.39000034  16.57999992  45.90999985
C     4.61000013  18.11000061  46.36000061
H     4.26051140  17.58933449  45.46844864
H     9.22000027  17.63000107  44.25000000
H     9.98000050  15.47000027  48.62999725
H     7.60999966  15.97000027  49.31000137
H     5.35000038  16.82999992  48.75999832
H     6.71000004  18.02000046  44.87999725
H    14.93000031  16.87999916  45.01999664
H     3.94000006  17.98999977  47.22000122
H     4.53000021  19.18000031  46.13999939
S    15.59000015  15.10000038  49.41999817
C    18.32999992  15.13000011  48.67000198
C    17.01000023  15.36000061  48.37999725
C    16.61000061  16.09000015  47.22000122
C    17.56999969  16.46000099  46.29000092
C    18.90999985  16.04999924  46.45999908
C    19.92000008  16.18000031  45.47000122
C    21.22999954  15.88000107  45.75000000
C    21.65999985  15.59000015  47.06999969
C    20.69999886  15.26999950  48.01000214
C    19.31999969  15.47999954  47.71999741
C    15.17000008  16.20000076  47.01000214
C    14.51000023  15.73999977  48.16999817
C    13.12000084  15.73999977  48.22999954
C    23.09999847  15.21999931  47.34000397
H    23.33508873  15.14163685  48.40146255
H    18.56999969  14.50000000  49.52000046
H    17.26000023  16.84000015  45.31999969
H    19.68000031  16.61999893  44.50000000
H    21.97000122  16.15999985  45.00000000
H    20.92000008  14.75000000  48.94000244
H    12.71000004  15.59000015  49.22999954
H    23.87000084  15.80000019  46.84000015
H    23.16999817  14.23999977  46.86000061
S    11.87999916  16.93000031  51.23000336
C     9.19999981  17.19000053  52.04999924
C    10.46000004  16.69999886  52.28000259
C    10.81999969  16.23999977  53.59000397
C     9.86999989  16.13000107  54.59000015
C     8.52000046  16.40999985  54.27000046
C     7.53999996  16.42000008  55.30000305
C     6.30000019  16.95999908  55.07999802
C     5.97000027  17.46000099  53.79000092
C     6.89000034  17.59000015  52.77999878
C     8.15999985  16.97999954  52.98999786
C    12.25999928  16.17000008  53.73000336
C    12.97999954  16.46000099  52.54000092
C    14.37000084  16.38000107  52.51999664
C     4.67000008  18.20000076  53.56999969
H     4.15880346  17.58230400  52.83160400
H     9.13000011  17.88999939  51.23000336
H    10.19000053  15.86999989  55.59000015
H     7.73000002  15.93999958  56.25999832
H     5.51000023  16.90000153  55.81999969
H     6.75000000  18.18000031  51.86999893
H    14.78000069  16.54999924  51.52999878
H     4.03999996  18.25000000  54.45999908
H     4.88000011  19.22000122  53.23999786
S    15.39999962  15.71000004  56.29000092
C    18.12999916  15.31999969  55.59999847
C    16.84999847  15.70000076  55.27000046
C    16.53000069  16.10999870  53.93000031
C    17.54999924  16.28999901  53.02000046
C    18.86999893  15.84000015  53.27999878
C    19.88999939  15.88999939  52.29000092
C    21.11999893  15.42000008  52.67000198
C    21.42000008  14.84000015  53.93000031
C    20.43000031  14.82999992  54.87999725
C    19.14999962  15.39000034  54.61999893
C    15.10000038  16.21999931  53.69999695
C    14.34999943  15.98000050  54.88999939
C    12.96000004  16.03999901  54.93999863
C    22.81999969  14.48999977  54.36999893
H    23.12601280  15.12337589  55.20264053
H    18.30999947  14.78000069  56.52999878
H    17.20999908  16.57999992  52.02000046
H    19.77000046  16.40999985  51.33999634
H    21.93000031  15.54999924  51.95000076
H    20.78000069  14.44000053  55.83000183
H    12.43999958  15.90000057  55.87999725
H    23.55999947  14.55999947  53.55999756
H    22.89999962  13.43999958  54.68000031
