96

S    12.30999947  16.84999847  44.06999969
C     9.64999962  17.17000008  44.89999771
C    10.88999939  16.60000038  45.10000229
C    11.23000050  16.06999969  46.38999939
C    10.31000042  16.03000069  47.42000198
C     8.97999954  16.46999931  47.19999695
C     7.94000053  16.21000099  48.13999939
C     6.65000010  16.52000046  47.78999710
C     6.34999990  17.27000046  46.62000275
C     7.37999964  17.61000061  45.77000046
C     8.69999981  17.11000061  45.93999863
C    12.64999962  15.75000000  46.52999878
C    13.34000015  16.28000069  45.40000153
C    14.72000027  16.39999962  45.35999680
C     4.92999983  17.68000031  46.30000305
H     4.43266535  17.01214981  45.59663010
H     9.42000008  17.71999931  43.99000168
H    10.47000027  15.46000004  48.33000183
H     8.27000046  15.77999973  49.08000183
H     5.80999947  16.35000038  48.44999695
H     7.18999958  18.15999985  44.86000061
H    15.29000092  16.92000008  44.59999847
H     4.38000011  17.69000053  47.25000000
H     4.86000013  18.65999985  45.81999969
S    15.82999992  15.52000046  49.08000183
C    18.52000046  15.07999992  48.27999878
C    17.23999977  15.50000000  48.01000214
C    16.93000031  15.93000031  46.68000031
C    17.88999939  15.84000015  45.68000031
C    19.19999886  15.40999985  45.98999786
C    20.28000069  15.32999992  45.06999969
C    21.54999924  14.98000050  45.45999908
C    21.90000153  14.77000046  46.81999969
C    20.90999985  14.81999969  47.77000046
C    19.57999992  15.10000038  47.34000397
C    15.48999977  16.05999947  46.47999573
C    14.78000069  15.77000046  47.67000198
C    13.40000057  15.57999992  47.69000244
C    23.34000015  14.55000019  47.25000000
H    23.46090508  15.09051514  48.18878937
H    18.71999931  14.80000019  49.31000137
H    17.60000038  16.13000107  44.66999817
H    20.06000137  15.67000008  44.05000305
H    22.34999847  14.93999958  44.72000122
H    21.21999931  14.65999985  48.80000305
H    12.84999943  15.44000053  48.61000061
H    24.05999947  14.63999939  46.43000031
H    23.34000015  13.48000050  47.47000122
S    16.04999924  13.22000027  52.60000229
C    18.68999863  12.68000031  51.88000107
C    17.35000038  12.56000042  51.59999847
C    16.84999847  12.06999969  50.34000015
C    17.71999931  11.61999893  49.36999893
C    19.10000038  11.64000034  49.68000031
C    20.03000069  11.11999989  48.73000336
C    21.38000107  11.16000080  49.00000000
C    21.88999939  11.78999996  50.15999603
C    21.01000023  12.34000015  51.05999756
C    19.60000038  12.22000027  50.89000320
C    15.44999981  12.41000080  50.12000275
C    14.92000008  13.09999943  51.24000168
C    13.60999966  13.55000019  51.29000092
C    23.38000107  11.77000046  50.43000031
H    23.60059929  11.77711582  51.49742126
H    19.04000092  13.15999985  52.78999710
H    17.30999947  11.21000099  48.44999695
H    19.73999977  10.77999973  47.74000168
H    22.01000023  10.80999947  48.18999863
H    21.42000008  12.81999969  51.93999863
H    13.30999947  14.07999992  52.19999695
H    23.80000114  10.84000015  50.00999832
H    23.85999870  12.60000038  49.88999939
S    12.05999947  12.06999969  47.94000244
C     9.46000004  12.67000008  48.61999893
C    10.78999996  12.74000072  48.97999573
C    11.28000069  13.22999954  50.22999573
C    10.36999893  13.61999989  51.18999863
C     8.97999954  13.60000038  50.89000320
C     8.00000000  14.14000034  51.77000046
C     6.69000053  14.23999977  51.38000107
C     6.28000021  13.73000050  50.12000275
C     7.20000029  13.15999985  49.27000046
C     8.56000042  13.00000000  49.65999985
C    12.72999954  13.10999966  50.28999710
C    13.30000019  12.53999901  49.12000275
C    14.63999939  12.18000031  49.01000214
C     4.86999989  14.04999924  49.68000031
H     4.63658094  13.71755409  48.66851807
H     9.15999985  12.42000008  47.61000061
H    10.72999954  13.94000053  52.15999985
H     8.27999973  14.57999992  52.72999573
H     6.06999969  14.93000031  51.95000076
H     6.90000010  12.88000011  48.26000214
H    15.05000019  11.67000008  48.13999939
H     4.65000010  15.11999989  49.75999832
H     4.18000031  13.60999966  50.40999985
