96

S    12.44999981  16.90000153  44.16999817
C     9.77000046  17.32999992  44.79000092
C    11.00000000  16.87000084  45.20000076
C    11.23000050  16.34000015  46.51000214
C    10.19999981  16.36000061  47.43000031
C     8.92000008  16.84000015  47.04999924
C     7.86999989  16.90999985  48.01000214
C     6.61999989  17.35000038  47.63999939
C     6.42000008  17.92000008  46.35000229
C     7.46000004  17.98999977  45.45000076
C     8.71000004  17.36999893  45.72999954
C    12.65999985  16.14999962  46.72999954
C    13.43000031  16.39999962  45.56000137
C    14.81999969  16.42000008  45.56000137
C     5.03000021  18.27999878  45.87999725
H     4.68051147  17.75933266  44.98844528
H     9.70000076  17.82999992  43.82999802
H    10.31999969  16.01000023  48.44999695
H     8.02999973  16.52000046  49.01000214
H     5.73999977  17.28999901  48.27999878
H     7.39000034  18.42000008  44.45999908
H    15.36000061  16.67000008  44.65000153
H     4.34999990  18.04000092  46.70999908
H     4.92999983  19.37999916  45.84000015
S    15.76000023  15.31999969  49.26000214
C    18.48999977  14.98000050  48.55999756
C    17.21999931  15.39000034  48.25000000
C    16.87999916  15.78999996  46.90999985
C    17.90999985  16.07999992  46.03000259
C    19.23999977  15.72999954  46.32999802
C    20.22999954  15.62999916  45.31000137
C    21.42999840  14.98999977  45.54000092
C    21.76000214  14.53999996  46.84000015
C    20.81000137  14.55000019  47.84000015
C    19.52999878  15.11999989  47.61000061
C    15.44999981  16.01000023  46.73999786
C    14.68999958  15.67999935  47.88999939
C    13.30000019  15.72000027  47.88999939
C    23.19000053  14.37999916  47.29000092
H    23.49573898  14.92037773  48.18589020
H    18.64999962  14.50000000  49.52000046
H    17.67000008  16.44000053  45.04000092
H    19.96999931  16.03999901  44.34000015
H    22.14999962  15.03000069  44.73999786
H    21.02999878  14.13000011  48.81999969
H    12.75000000  15.46000004  48.79000092
H    23.78000069  14.70999908  46.43000031
H    23.38000107  13.30000019  47.35000229
S    11.75000000  16.87000084  51.12999725
C     9.19000053  17.71999931  51.83000183
C    10.38000011  17.14999962  52.22000122
C    10.67000008  16.68000031  53.54000092
C     9.61999989  16.61999893  54.43999863
C     8.36999989  17.18000031  54.09000015
C     7.23999977  16.98999977  54.93000031
C     5.98999977  17.39999962  54.54999924
C     5.79999971  18.04999924  53.29999924
C     6.85999966  18.27000046  52.45999908
C     8.15999985  17.79000092  52.80000305
C    12.09000015  16.39000130  53.73000336
C    12.79000092  16.42000008  52.50000000
C    14.18000031  16.31999969  52.43999863
C     4.39000034  18.39999962  52.88000107
H     4.12650728  17.85165024  51.97557449
H     9.04999924  17.85000038  50.76000214
H     9.57999992  16.13000107  55.40999985
H     7.48000050  16.48999977  55.86999893
H     5.15999985  17.27000046  55.24000168
H     6.76999998  18.76000023  51.50000000
H    14.68000031  16.23999977  51.47999573
H     3.65999985  18.17000008  53.67000198
H     4.23000002  19.45999908  52.68000031
S    15.29999924  15.62999916  56.18000031
C    17.94000053  15.11000061  55.34000015
C    16.68000031  15.59000015  55.06000137
C    16.36000061  16.03999901  53.75000000
C    17.35999870  16.13999939  52.80000305
C    18.67000008  15.72999954  53.11000061
C    19.78000069  15.73999977  52.21000290
C    21.07999992  15.44000053  52.56999969
C    21.38000107  15.06000042  53.90999603
C    20.35000038  14.98000050  54.80999756
C    19.01000023  15.24000072  54.41999817
C    14.91000080  16.15999985  53.61999893
C    14.21000004  16.05999947  54.85000229
C    12.81999969  16.05999947  54.87999725
C    22.76000023  14.63000107  54.36000061
H    23.15885162  15.29950237  55.12209320
H    18.19000053  14.68999958  56.31999969
H    17.15999985  16.40999985  51.76000214
H    19.67000008  16.05999947  51.18000031
H    21.87999916  15.38000011  51.84999847
H    20.55000114  14.63999939  55.81999969
H    12.30999947  15.90999985  55.81999969
H    23.48999977  14.42000008  53.55999756
H    22.65000153  13.75000000  55.00000000
