96

S    12.43000031  17.14999962  44.54000092
C     9.76000023  17.34000015  45.24000168
C    11.00999928  16.87999916  45.56999969
C    11.38000011  16.32999992  46.84000015
C    10.32999992  16.04999924  47.70000076
C     9.02000046  16.47999954  47.38999939
C     7.99000025  16.42000008  48.36999893
C     6.70000029  16.77999878  48.06999969
C     6.43000031  17.46999931  46.86000061
C     7.40000010  17.65999985  45.90000153
C     8.69999981  17.15999985  46.17000198
C    12.81999969  16.35000038  47.01000214
C    13.55000019  16.76000023  45.86999893
C    14.93999958  16.75000000  45.81999969
C     5.01999950  17.86999893  46.50000000
H     4.67876768  17.46478653  45.54738998
H     9.50000000  17.94999886  44.36999893
H    10.39000034  15.64000034  48.69999695
H     8.30999947  16.05999947  49.34999847
H     5.93999958  16.45000076  48.77999878
H     7.21000004  18.06999969  44.91000366
H    15.47000027  17.04000092  44.92000198
H     4.36999989  17.46000099  47.28000259
H     4.98000002  18.96000099  46.63999939
S    16.06999969  15.62000084  49.47000122
C    18.71000099  15.15999985  48.62999725
C    17.43000031  15.59000015  48.34000015
C    17.06999969  16.10999870  47.05999756
C    18.05999947  16.31999969  46.11999893
C    19.37000084  15.85000038  46.38999939
C    20.34000015  15.84000015  45.34999847
C    21.63999939  15.51000023  45.59999847
C    22.04000092  15.01999950  46.88000107
C    21.09000015  14.88000011  47.85999680
C    19.72999954  15.26999950  47.64999771
C    15.62999916  16.32999992  46.95999908
C    14.93999958  16.07999992  48.18000031
C    13.55999947  16.04999924  48.16999817
C    23.50000000  14.80999947  47.19999695
H    23.72762299  15.20833969  48.18873978
H    18.98999977  14.53999996  49.47999954
H    17.79000092  16.72999954  45.14999771
H    20.09000015  16.27000046  44.38000107
H    22.40999985  15.76000023  44.87999725
H    21.44000053  14.37000084  48.75000000
H    13.02000046  15.73999977  49.06000137
H    24.11999893  15.32999992  46.45999908
H    23.82999802  13.76999950  47.08000183
S    11.98999977  17.22999954  51.18999863
C     9.31999969  17.72999954  52.01000214
C    10.59999943  17.30999947  52.29000092
C    10.90999985  16.82999992  53.61000061
C     9.94000053  16.82999992  54.59999847
C     8.60999966  17.18000031  54.27999878
C     7.57000017  17.05999947  55.24000168
C     6.28999996  17.46000099  54.94999695
C     5.98000002  17.92000008  53.64999771
C     6.94999981  18.07999992  52.68000031
C     8.27999973  17.68000031  52.97000122
C    12.32999992  16.61999893  53.77999878
C    13.03999996  16.84999847  52.57999802
C    14.40999985  16.90000153  52.36999893
C     4.53999996  18.13999939  53.22999954
H     4.11131096  17.47553062  52.47979355
H     9.00000000  18.02000046  51.00999832
H    10.17000008  16.35000038  55.54999924
H     7.96000004  16.60000038  56.14999771
H     5.60999966  17.45000076  55.79999924
H     6.74000025  18.55999947  51.72999954
H    14.86999989  16.87999916  51.38000107
H     3.93000007  18.25000000  54.13000107
H     4.44999981  19.19000053  52.90999985
S    15.70000076  16.15999985  56.02000427
C    18.23999977  15.52999973  55.15999603
C    17.00000000  16.03000069  54.82999802
C    16.61999893  16.51000023  53.53000259
C    17.54999924  16.46000099  52.50999832
C    18.81999969  15.90000057  52.78999710
C    19.88999939  15.88000107  51.84999847
C    21.14000130  15.44000053  52.19999695
C    21.52000046  15.21000004  53.54999924
C    20.53999901  15.21000004  54.51000214
C    19.19999886  15.50000000  54.12000275
C    15.18000031  16.72999954  53.52000427
C    14.52000046  16.57999992  54.77000427
C    13.14000034  16.48999977  54.92000198
C    22.96999931  15.11999989  53.95999908
H    23.14015770  15.36105537  55.00930405
H    18.45999908  15.11999989  56.13999939
H    17.42000008  16.87000084  51.51000214
H    19.70000076  16.21999931  50.84000015
H    22.01000023  15.47000027  51.53999710
H    20.85000038  15.07999992  55.54000092
H    12.77999973  16.48999977  55.94999695
H    23.38999939  15.90999985  53.33000183
H    23.38000107  14.14000034  53.67000198
