96

S    11.76000023  16.69000053  44.62999725
C     9.09000015  17.19000053  45.40999985
C    10.39000034  16.84999847  45.73999786
C    10.72999954  16.54000092  47.09000015
C     9.82999992  16.67000008  48.13000107
C     8.47999954  16.93000031  47.81999969
C     7.42000008  16.95999908  48.76999664
C     6.11000013  17.20000076  48.43000031
C     5.73999977  17.28999901  47.06999969
C     6.76000023  17.40999985  46.14999771
C     8.14000034  17.21999931  46.45000076
C    12.15000057  16.21000099  47.19999695
C    12.86000061  16.32999992  45.97999954
C    14.22999954  16.11999893  45.84999847
C     4.28999996  17.53000069  46.70999908
H     4.01317739  16.86278725  45.89373016
H     8.71999931  17.28000069  44.38999939
H    10.21999931  16.46000099  49.12000275
H     7.83999968  16.80999947  49.75999832
H     5.31000042  17.28999901  49.16999817
H     6.57000017  17.86999893  45.19000244
H    14.67000008  16.22999954  44.86999893
H     3.61999989  17.35999870  47.56000137
H     4.21999979  18.57999992  46.39999771
S    15.54999924  15.67999935  49.55999756
C    18.22000122  15.31999969  48.75999832
C    16.90999985  15.55999947  48.43000031
C    16.51000023  15.78999996  47.06999969
C    17.51000023  16.10000038  46.17000198
C    18.86999893  15.81999969  46.46999741
C    19.81999969  15.77000046  45.41999817
C    21.12999916  15.44000053  45.70000076
C    21.52000046  15.11000061  47.02000046
C    20.62000084  15.11999989  48.06000137
C    19.26000023  15.44000053  47.81000137
C    15.06000042  15.86999989  46.95000076
C    14.40000057  15.82999992  48.20999908
C    13.02000046  15.98000050  48.27000046
C    22.90999985  14.65000057  47.41000366
H    23.13750267  15.01258373  48.41243744
H    18.39999962  15.18000031  49.82999802
H    17.32999992  16.51000023  45.18000031
H    19.57999992  16.10000038  44.40999985
H    21.87000084  15.29999924  44.92000198
H    20.88999939  14.55999947  48.95000076
H    12.53999901  16.13000107  49.22999954
H    23.57000160  15.03000069  46.62000275
H    22.89999962  13.55000019  47.45999908
S    11.98999977  17.47999954  51.68000031
C     9.30000019  17.69000053  52.36000061
C    10.57000065  17.35999870  52.75000000
C    10.88999939  17.01000023  54.09999847
C     9.85999966  17.05000114  55.01999664
C     8.52999973  17.39999962  54.68000031
C     7.40000010  17.35000038  55.54999924
C     6.15999985  17.73999977  55.12000275
C     5.95000029  18.27000046  53.81999969
C     6.98999977  18.29000092  52.91999817
C     8.27000046  17.81999969  53.33000183
C    12.32999992  16.87999916  54.29999924
C    13.01000023  17.04000092  53.06999969
C    14.40000057  16.95999908  53.04000092
C     4.53999996  18.61999893  53.40999985
H     4.26207399  17.95725250  52.59047318
H     9.15000057  18.09000015  51.36000061
H    10.13000011  16.75000000  56.03000259
H     7.63000011  16.92000008  56.52000046
H     5.32000017  17.61000061  55.80999756
H     6.80000019  18.45999908  51.86000061
H    14.92000008  17.05000114  52.09000015
H     3.86000013  18.51000023  54.27000046
H     4.48999977  19.67000008  53.09999847
S    15.52000046  16.43000031  56.79999924
C    18.20999908  15.97000027  56.00999832
C    16.94000053  16.42000008  55.73999786
C    16.55999947  16.79999924  54.40999985
C    17.46000099  16.73999977  53.36000061
C    18.82999992  16.46999931  53.57999802
C    19.80999947  16.28999901  52.56999969
C    21.05999947  15.81999969  52.90999985
C    21.40000153  15.55999947  54.26000214
C    20.45000076  15.65000057  55.25000000
C    19.11999893  16.04999924  54.92000198
C    15.11999989  16.92000008  54.23999786
C    14.42000008  16.81999969  55.45999908
C    13.02999973  16.80999947  55.51000214
C    22.78000069  15.06000042  54.65000153
H    23.04192352  15.49889660  55.61273956
H    18.53000069  15.65999985  57.00000000
H    17.09000015  16.86000061  52.34000397
H    19.51000023  16.46999931  51.53999710
H    21.80999947  15.57000065  52.15999985
H    20.66999817  15.26000023  56.24000168
H    12.48999977  16.59000015  56.43000031
H    23.54999924  15.29000092  53.92000198
H    22.69000053  13.96999931  54.64000320
