96

S    12.25000000  16.81999969  44.45999908
C     9.48999977  16.92000008  45.12000275
C    10.78999996  16.61000061  45.44000244
C    11.16000080  16.20000076  46.77000046
C    10.17000008  16.20000076  47.72999573
C     8.82000065  16.53000069  47.44999695
C     7.86000013  16.75000000  48.47999954
C     6.58999968  17.19000053  48.15999985
C     6.17999983  17.42000008  46.83000183
C     7.11999989  17.27000046  45.83000183
C     8.47999954  16.94000053  46.11000061
C    12.58999920  16.04999924  46.97999954
C    13.30999947  16.40999985  45.81999969
C    14.70000076  16.47999954  45.86000061
C     4.75000000  17.81999969  46.52999878
H     4.45826292  17.36460686  45.58363342
H     9.26000023  17.30999947  44.13999939
H    10.50000000  15.95000076  48.73000336
H     8.15999985  16.67000008  49.52000046
H     5.98999977  17.38999939  49.03999710
H     6.84999990  17.40999985  44.79000092
H    15.14000034  16.64999962  44.88999939
H     4.00999975  17.56000137  47.29000092
H     4.76999998  18.90999985  46.39999771
S    15.70000076  15.19000053  49.45999908
C    18.37000084  14.60000038  48.63999939
C    17.12000084  15.13000011  48.40000153
C    16.79000092  15.72999954  47.14000320
C    17.75000000  15.84000015  46.14999771
C    19.07999992  15.44000053  46.40999603
C    20.15999985  15.44000053  45.48999786
C    21.45000076  15.01999950  45.72999954
C    21.73000145  14.55999947  47.04000092
C    20.72000122  14.44000053  47.95999908
C    19.38999939  14.85000038  47.68000031
C    15.39000034  16.10999870  47.02000046
C    14.61999989  15.72000027  48.15000153
C    13.23999977  15.81999969  48.20000076
C    23.15000153  14.25000000  47.48000336
H    23.51494217  14.90117264  48.27429199
H    18.52000046  13.97999954  49.52000046
H    17.50000000  16.10000038  45.12000275
H    20.07999802  15.95999908  44.52999878
H    22.26000023  15.36000061  45.08999634
H    20.89999962  14.06999969  48.96999741
H    12.64000034  15.53999996  49.06999969
H    23.78999901  14.32000065  46.59000015
H    23.09999847  13.20000076  47.77999878
S    15.95000076  12.51000023  52.77999878
C    18.60000038  11.90999985  52.04000092
C    17.27000046  11.98999977  51.72000122
C    16.73999977  11.72000027  50.40999985
C    17.65999985  11.35000038  49.45000076
C    19.05999947  11.36999989  49.68000031
C    19.97999954  11.03999996  48.64999771
C    21.32999802  11.02000046  48.90999603
C    21.84000015  11.31999969  50.20000076
C    20.95000076  11.77999973  51.13999939
C    19.54000092  11.61999893  51.00999832
C    15.29999924  11.90000057  50.31000137
C    14.70000076  12.30000019  51.53999710
C    13.40000057  12.79000092  51.59000015
C    23.28000069  11.03000069  50.52000046
H    23.59231949  11.32812309  51.52083969
H    18.96000099  12.35999966  52.95999908
H    17.27000046  11.21000099  48.43999863
H    19.56999969  10.95000076  47.64999771
H    21.97000122  10.65999985  48.11000061
H    21.35000038  12.07999992  52.11000061
H    13.20000076  13.40999985  52.45999908
H    23.47999954   9.94999981  50.40000153
H    24.01000023  11.40999985  49.79000092
S    12.02000046  12.34000015  47.88999939
C     9.38000011  12.89000034  48.75999832
C    10.72999954  12.84999943  49.00000000
C    11.18999958  13.09000015  50.34000015
C    10.31000042  13.57999992  51.29000092
C     8.93000031  13.73000050  51.00999832
C     7.96000004  14.13000011  51.97000122
C     6.61999989  14.23999977  51.70000076
C     6.17000008  13.83999920  50.40999985
C     7.03999996  13.43999958  49.43000031
C     8.43000031  13.34000015  49.71000290
C    12.56999969  12.65999985  50.47000122
C    13.17000008  12.27000046  49.23999786
C    14.50000000  11.85999966  49.16999817
C     4.75000000  14.11999893  49.95999908
H     4.53035736  13.82950497  48.93263626
H     9.07999992  12.51999950  47.77999878
H    10.59000015  13.82999992  52.30999756
H     8.36999989  14.44000053  52.93000031
H     5.98000002  14.65000057  52.48000336
H     6.61000013  13.40999985  48.43000031
H    14.91000080  11.65999985  48.18000031
H     4.55999994  15.19999981  49.97000122
H     4.11000013  13.52000046  50.59999847
