96

S    12.50000000  17.38000107  44.54000092
C     9.80000019  17.64000130  45.31999969
C    11.06999969  17.17000008  45.56999969
C    11.38000011  16.77999878  46.90999985
C    10.38000011  16.56999969  47.84000015
C     9.06999969  17.01000023  47.57999802
C     7.97999954  16.88999939  48.48999786
C     6.72999954  17.35000038  48.13000107
C     6.44999981  17.93000031  46.86999893
C     7.46000004  17.97999954  45.91999817
C     8.75000000  17.52000046  46.26999664
C    12.81999969  16.73999977  47.12999725
C    13.53000069  16.94000053  45.91999817
C    14.88000011  16.64999962  45.90999985
C     5.03999996  18.26000023  46.45000076
H     4.71326351  17.63493919  45.61895370
H     9.64999962  18.22999954  44.41999817
H    10.62000084  16.14999962  48.81999969
H     8.14999962  16.62999916  49.52999878
H     5.95000029  17.31999969  48.88999939
H     7.40999985  18.38000107  44.91000366
H    15.44000053  16.59000015  44.98000336
H     4.32999992  18.02999878  47.25999832
H     5.01999950  19.32999992  46.22000122
S    15.97000027  15.98000050  49.66999817
C    18.68000031  15.54999924  48.90999603
C    17.38000107  15.88999939  48.59000397
C    17.02000046  16.28999901  47.27000427
C    18.00000000  16.40999985  46.29000092
C    19.31999969  16.03000069  46.62000275
C    20.32999992  15.97000027  45.61999893
C    21.51000023  15.32999992  45.89000320
C    21.87000084  14.86999989  47.18000031
C    20.95000076  14.93000031  48.20000076
C    19.70000076  15.55999947  47.93000031
C    15.57999992  16.43000031  47.11000061
C    14.88000011  16.39999962  48.34000015
C    13.48999977  16.44000053  48.31999969
C    23.26999855  14.42000008  47.55000305
H    23.62388802  15.01453304  48.39225769
H    18.85000038  15.22999954  49.93000031
H    17.72999954  16.59000015  45.25000000
H    20.09000015  16.43000031  44.65999985
H    22.18000031  15.18000031  45.04000092
H    21.07999992  14.63999939  49.23999786
H    12.97999954  16.20000076  49.25000000
H    23.95999908  14.52000046  46.70000076
H    23.22000122  13.34000015  47.69000244
S    11.87999916  17.59000015  51.42000198
C     9.13999939  17.46999931  52.05999756
C    10.44999981  17.23999977  52.39999771
C    10.81999969  16.87000084  53.74000168
C     9.81999969  16.72000122  54.68000031
C     8.50000000  17.17000008  54.47999954
C     7.44000006  17.35999870  55.40999985
C     6.15000010  17.71000099  55.08999634
C     5.80999947  17.87999916  53.72000122
C     6.80000019  17.69000053  52.78999710
C     8.17000008  17.40999985  53.09999847
C    12.25999928  16.84999847  53.92000198
C    12.98999977  17.27000046  52.77000046
C    14.37999916  17.23999977  52.70000076
C     4.41000032  18.26000023  53.27999878
H     3.97461462  17.79606438  52.39495468
H     8.82000065  17.78000069  51.06999969
H    10.08999920  16.35000038  55.66999817
H     7.67000008  17.17000008  56.45000076
H     5.45000029  17.98999977  55.87999725
H     6.67000008  17.76000023  51.72000122
H    14.98999977  17.27000046  51.81000137
H     3.75999975  18.13999939  54.15999985
H     4.35999966  19.34000015  53.06999969
S    15.44000053  15.80000019  56.25999832
C    18.09000015  15.34000015  55.41999817
C    16.81999969  15.78999996  55.13999939
C    16.43000031  16.21999931  53.82999802
C    17.42000008  16.57999992  52.95000076
C    18.72999954  16.09000015  53.15000153
C    19.78999901  16.42000008  52.25000000
C    21.07999992  16.04999924  52.50999832
C    21.42000008  15.31999969  53.68000031
C    20.38999939  14.96000099  54.51000214
C    19.03000069  15.36999893  54.36000061
C    15.03999901  16.64999962  53.77999878
C    14.34000015  16.32999992  54.98000336
C    12.94999981  16.36000061  55.02999878
C    22.85000038  15.01000023  54.06999969
H    23.02055931  15.36532974  55.08624268
H    18.44000053  15.19000053  56.44000244
H    17.20999908  17.27000046  52.12999725
H    19.59000015  17.20999908  51.52000046
H    21.88999939  16.39000130  51.86000061
H    20.62999916  14.60000038  55.51000214
H    12.43999958  15.88999939  55.86999893
H    23.55999947  15.57000065  53.46000290
H    23.11000061  13.96000004  53.86000061
