96

S    11.97000027  16.68000031  44.36000061
C     9.32999992  17.17000008  44.98000336
C    10.57999992  16.84000015  45.45000076
C    11.03000069  16.54000092  46.77000046
C    10.00000000  16.51000023  47.70000076
C     8.64999962  16.79000092  47.36999893
C     7.59999990  16.72000122  48.33000183
C     6.32000017  17.02999878  47.95000076
C     6.09000015  17.36999893  46.59000015
C     7.05999947  17.63000107  45.65999985
C     8.36000061  17.17000008  46.00999832
C    12.43999958  16.20000076  46.88000107
C    13.14000034  16.31999969  45.65000153
C    14.50000000  16.11999893  45.48999786
C     4.65999985  17.70000076  46.22000122
H     4.50332165  17.55044365  45.15173721
H     9.10000038  17.39999962  43.94000244
H    10.19999981  15.97000027  48.62999725
H     7.85000038  16.53000069  49.38000107
H     5.46000004  16.95000076  48.61000061
H     6.96000004  17.98999977  44.64000320
H    15.01000023  16.28999901  44.54999924
H     4.03999996  17.05000114  46.84000015
H     4.42000008  18.71000099  46.56999969
S    15.69000053  15.32999992  49.22000122
C    18.37000084  15.13000011  48.62999725
C    17.12000084  15.50000000  48.18000031
C    16.70999908  15.80000019  46.84000015
C    17.73999977  15.88999939  45.91999817
C    19.07999992  15.62999916  46.26999664
C    20.17999840  15.65000057  45.35999680
C    21.44000053  15.21000004  45.70000076
C    21.65999985  14.75000000  47.02999878
C    20.62999916  14.63999939  47.93000031
C    19.34000015  15.14999962  47.60000229
C    15.26999950  15.85999966  46.63000107
C    14.59000015  15.57000065  47.84000015
C    13.21000004  15.71000004  47.94000244
C    23.09000015  14.42999935  47.39999771
H    23.41712570  15.06291771  48.22492599
H    18.75000000  14.78000069  49.58000183
H    17.46000099  15.93999958  44.86999893
H    19.88000107  15.82999992  44.33000183
H    22.23999977  15.11000061  44.97000122
H    20.89999962  14.29999924  48.92000198
H    12.68000031  15.44999981  48.85000229
H    23.71999931  14.65000057  46.52000046
H    23.09999847  13.35000038  47.60000229
S    11.77000046  17.05000114  51.31000137
C     9.11000061  17.22999954  51.97000122
C    10.36999893  16.86000061  52.36999893
C    10.72999954  16.63999939  53.74000168
C     9.73999977  16.77999878  54.69999695
C     8.40999985  17.12000084  54.34000015
C     7.34000015  17.17000008  55.27999878
C     6.10000038  17.63000107  54.93000031
C     5.82000017  17.94999886  53.56999969
C     6.81999969  17.88999939  52.62000275
C     8.10999966  17.40999985  52.95999908
C    12.15999985  16.42000008  53.85000229
C    12.86999893  16.68000031  52.64999771
C    14.25000000  16.57999992  52.50999832
C     4.36999989  18.12000084  53.16999817
H     4.09190083  17.38553429  52.41414261
H     9.02999973  17.56999969  50.93999863
H     9.94999981  16.55999947  55.73999786
H     7.51999950  16.70999908  56.25000000
H     5.28999996  17.61999893  55.65999985
H     6.56000042  18.19000053  51.60999680
H    14.70999908  16.65999985  51.52999878
H     3.68000007  18.06999969  54.02000046
H     4.26999998  19.11000061  52.70000076
S    15.34000015  15.57000065  56.24000168
C    18.11000061  15.64000034  55.50000000
C    16.77999878  15.90000057  55.25000000
C    16.40999985  16.26000023  53.90999603
C    17.39999962  16.36000061  52.94000244
C    18.73999977  15.98999977  53.20999908
C    19.77000046  15.97000027  52.22999954
C    21.02999878  15.52000046  52.55000305
C    21.35000038  15.14000034  53.88000107
C    20.38999939  14.96000099  54.85000229
C    19.11999893  15.51000023  54.51000214
C    14.98000050  16.35000038  53.68000031
C    14.29999924  16.09000015  54.89999771
C    12.90999985  16.13999939  55.00000000
C    22.77000046  14.73000050  54.20000076
H    22.99756622  15.00023460  55.23115921
H    18.39999962  15.24000072  56.45999908
H    17.14999962  16.31000137  51.88000107
H    19.63000107  16.35000038  51.22000122
H    21.70000076  15.36000061  51.70999908
H    20.62999916  14.63000107  55.84999847
H    12.39999962  15.77999973  55.87999725
H    23.43000031  15.21000004  53.47999954
H    22.79999924  13.63999939  54.09000015
