96

S    12.15000057  16.61000061  44.22000122
C     9.46000004  17.13000107  44.92000198
C    10.73999977  16.79000092  45.28999710
C    11.05999947  16.44000053  46.63999939
C    10.10000038  16.32999992  47.63000107
C     8.80000019  16.77000046  47.29000092
C     7.73000002  16.72000122  48.22000122
C     6.43000031  17.04000092  47.91999817
C     6.17999983  17.60000038  46.63999939
C     7.18999958  17.75000000  45.72000122
C     8.50000000  17.22999954  45.96000290
C    12.46999931  16.17000008  46.84000015
C    13.17999935  16.22999954  45.61999893
C    14.56999969  16.11999893  45.65000153
C     4.80999994  18.12999916  46.26999664
H     4.43170595  17.53043747  45.44203568
H     9.18000031  17.39999962  43.90999603
H    10.34000015  15.85999966  48.57999802
H     8.05000019  16.29999924  49.16999817
H     5.65000010  16.94000053  48.68000031
H     7.02000046  18.18000031  44.73999786
H    15.14999962  16.20000076  44.73999786
H     4.11999989  18.02999878  47.11999893
H     4.90999985  19.17000008  45.93000031
S    15.54999924  15.55999947  49.47000122
C    18.22999954  15.00000000  48.80000305
C    16.97000122  15.38000011  48.41999817
C    16.64999962  15.60999966  47.04000092
C    17.71000099  15.75000000  46.16000366
C    19.04999924  15.53999996  46.56999969
C    20.10999870  15.52999973  45.61000061
C    21.35000038  15.01000023  45.87999725
C    21.67000008  14.63999939  47.21000290
C    20.65000153  14.61999989  48.13999939
C    19.32999992  15.08999920  47.90000153
C    15.22999954  15.81999969  46.84999847
C    14.48999977  15.73999977  48.06000137
C    13.10999966  15.93999958  48.06999969
C    23.06999969  14.19999981  47.57999802
H    23.27709389  14.59990311  48.57261658
H    18.34000015  14.55000019  49.78000259
H    17.52000046  15.81999969  45.08999634
H    19.88999939  15.97000027  44.65000153
H    22.11999893  14.98999977  45.12000275
H    20.81000137  14.14000034  49.09999847
H    12.58999920  15.71000004  48.99000168
H    23.85999870  14.48999977  46.88000107
H    23.05999947  13.09999943  47.60000229
S    15.93999958  13.01000023  52.44999695
C    18.55999947  12.48000050  51.75000000
C    17.22999954  12.42000008  51.38999939
C    16.72000122  11.90000057  50.14999771
C    17.61999893  11.42000008  49.20999908
C    18.98999977  11.50000000  49.54999924
C    19.93999863  11.03999996  48.60000229
C    21.25999832  10.86999989  48.95999908
C    21.75000000  11.44999981  50.15999603
C    20.89999962  12.10999966  51.03000259
C    19.50000000  12.02000046  50.79000092
C    15.27999973  12.07999992  50.05000305
C    14.72000027  12.71999931  51.18000031
C    13.38999939  13.09000015  51.18999863
C    23.16999817  11.06999969  50.52000046
H    23.57308578  11.60037518  51.38274002
H    18.97999954  13.03999996  52.56999969
H    17.29999924  11.00000000  48.26000214
H    19.54000092  10.67999935  47.65999603
H    21.87999916  10.29000092  48.29000092
H    21.14000130  12.43999958  52.04000092
H    12.97999954  13.80000019  51.90999985
H    23.22000122  10.00000000  50.73999786
H    23.78999901  11.35000038  49.65999985
S    12.00000000  12.10000038  47.61000061
C     9.39999962  12.84999943  48.25000000
C    10.72999954  12.84999943  48.59000397
C    11.26000023  13.28999996  49.84000397
C    10.36999893  13.86999989  50.73999786
C     8.98999977  13.90999985  50.43000031
C     8.01999950  14.35999966  51.36000061
C     6.67999983  14.40000057  51.06999969
C     6.21000004  13.92000008  49.81999969
C     7.09000015  13.43999958  48.88000107
C     8.47999954  13.36999989  49.20000076
C    12.64000034  12.88000011  50.02999878
C    13.21000004  12.23999977  48.89999771
C    14.51000023  11.72999954  48.94000244
C     4.76999998  14.00000000  49.38999939
H     4.60713196  13.47599030  48.44820023
H     8.96000004  12.34000015  47.38999939
H    10.65999985  14.19999981  51.73999786
H     8.30999947  14.75000000  52.32999802
H     6.02999973  14.91000080  51.77999878
H     6.71000004  13.02000046  47.95999908
H    14.85000038  11.21000099  48.04999924
H     4.61000013  15.06999969  49.23999786
H     4.05000019  13.60000038  50.11000061
