96

S    12.27000046  17.27000046  44.26000214
C     9.63999939  17.68000031  45.15999603
C    10.90000057  17.14999962  45.38000107
C    11.19999981  16.54999924  46.63999939
C    10.26000023  16.38000107  47.63999939
C     8.96000004  16.90999985  47.43999863
C     7.90999985  16.84999847  48.39000320
C     6.65000010  17.35999870  48.13000107
C     6.40999985  17.89999962  46.84000015
C     7.44000006  18.25000000  45.98999786
C     8.67000008  17.56999969  46.18999863
C    12.63000011  16.36000061  46.77999878
C    13.31999969  16.75000000  45.59000015
C    14.70999908  16.77999878  45.56999969
C     4.98000002  18.22999954  46.46999741
H     4.64596796  17.71829224  45.56740189
H     9.51000023  18.30999947  44.29000092
H    10.39999962  15.78999996  48.54000092
H     8.15999985  16.46999931  49.38000107
H     5.84999990  17.20999908  48.85000229
H     7.22000027  18.68000031  45.01999664
H    15.18000031  16.95999908  44.61000061
H     4.28999996  18.15999985  47.30999756
H     5.05000019  19.29000092  46.19999695
S    15.76000023  15.90999985  49.36000061
C    18.35000038  15.32999992  48.60000229
C    17.14999962  15.90000057  48.25000000
C    16.84000015  16.31999969  46.91999817
C    17.86000061  16.28999901  45.98999786
C    19.18000031  15.92000008  46.35000229
C    20.20999908  15.88999939  45.37000275
C    21.44000053  15.36000061  45.68999863
C    21.70999908  14.85000038  46.98999786
C    20.68000031  14.78999996  47.90000153
C    19.43000031  15.44999981  47.69000244
C    15.40999985  16.51000023  46.75000000
C    14.72000027  16.22999954  47.95999908
C    13.34000015  16.07999992  47.95000076
C    23.06999969  14.34000015  47.38999939
H    23.41869736  14.85237312  48.28665161
H    18.38999939  14.85000038  49.56999969
H    17.63000107  16.56999969  44.95999908
H    20.05000114  16.39000130  44.43000031
H    22.13000107  15.21000004  44.86000061
H    20.82999992  14.27999973  48.85000229
H    12.86999893  15.78999996  48.88999939
H    23.81000137  14.53999996  46.60999680
H    23.05999947  13.23999977  47.43999863
S    16.20000076  13.43000031  52.19999695
C    18.75000000  12.53999901  51.53999710
C    17.43000031  12.65999985  51.18000031
C    16.94000053  12.23000050  49.91000366
C    17.79000092  11.65999985  48.97999573
C    19.18000031  11.65999985  49.23999786
C    20.19000053  11.14999962  48.37999725
C    21.54000092  11.13000011  48.63999939
C    21.97999954  11.59000015  49.91000366
C    21.02999878  11.95000076  50.84999847
C    19.63999939  12.02999973  50.56000137
C    15.52000046  12.53999901  49.79000092
C    14.96999931  13.09000015  50.97000122
C    13.61999989  13.42000008  51.06999969
C    23.43000031  11.44999981  50.30000305
H    23.61495972  11.44999981  51.37419510
H    19.13999939  12.89000034  52.49000168
H    17.46999931  11.03999996  48.13999939
H    19.85999870  10.65999985  47.47000122
H    22.20000076  10.67000008  47.90999985
H    21.38999939  12.15999985  51.84999847
H    13.25000000  13.52000046  52.08000183
H    23.81000137  10.51000023  49.89999771
H    24.10000038  12.11999989  49.73999786
S    12.07999992  12.35999966  47.57999802
C     9.43000031  13.01000023  48.36000061
C    10.78999996  13.02999973  48.59000397
C    11.31000042  13.45000076  49.85000229
C    10.44000053  13.93000031  50.81999969
C     9.03999996  13.94999981  50.59000015
C     8.10999966  14.53999996  51.50000000
C     6.77999973  14.57999992  51.14999771
C     6.32000017  14.11999893  49.88999939
C     7.13999987  13.47000027  48.99000168
C     8.52000046  13.43000031  49.36000061
C    12.75000000  13.30999947  49.97000122
C    13.30999947  12.76000023  48.79000092
C    14.65000057  12.41000080  48.69999695
C     4.86000013  14.27999973  49.52999878
H     4.61812830  14.02390099  48.49848938
H     9.06999969  12.60000038  47.42000198
H    10.84000015  14.18000031  51.79000092
H     8.48999977  15.06999969  52.36999893
H     5.98999977  14.98999977  51.77000046
H     6.74000025  13.17999935  48.02000046
H    15.10000038  11.92000008  47.84000015
H     4.48000002  15.25000000  49.86000061
H     4.40000010  13.59000015  50.25000000
