96

S    12.25000000  17.43999863  44.31999969
C     9.63000011  17.81999969  45.08999634
C    10.86999989  17.30999947  45.43000031
C    11.19999981  16.79000092  46.72000122
C    10.18000031  16.57999992  47.63000107
C     8.89999962  17.11000061  47.35000229
C     7.83999968  17.15999985  48.29999924
C     6.58999968  17.69000053  48.06999969
C     6.30999994  18.22000122  46.77999878
C     7.28999996  18.17000008  45.81999969
C     8.61999989  17.71999931  46.07999802
C    12.64000034  16.65999985  46.86999893
C    13.30999947  16.94000053  45.65999985
C    14.70000076  16.84999847  45.56999969
C     4.92000008  18.71000099  46.42000198
H     4.62243319  18.08652687  45.57689285
H     9.35999966  18.22000122  44.12000275
H    10.31000042  15.98999977  48.53000259
H     8.19000053  16.80999947  49.27000046
H     5.82000017  17.52000046  48.81000137
H     7.13000011  18.61999893  44.85000229
H    15.21000004  17.12000084  44.65999985
H     4.21000004  18.54999924  47.22999954
H     4.90000010  19.75000000  46.06999969
S    15.76000023  15.59000015  49.20999908
C    18.46999931  15.24000072  48.50999832
C    17.18000031  15.55999947  48.15000153
C    16.84000015  16.10999870  46.86999893
C    17.82999992  16.18000031  45.90000153
C    19.13999939  15.75000000  46.18999863
C    20.12000084  15.80999947  45.15999603
C    21.42000008  15.42000008  45.38999939
C    21.71999931  14.88000011  46.65999985
C    20.81000137  14.84000015  47.69000244
C    19.45000076  15.19999981  47.49000168
C    15.42000008  16.34000015  46.65000153
C    14.72000027  16.09000015  47.85999680
C    13.34000015  16.22999954  48.01000214
C    23.15999985  14.59000015  47.04000092
H    23.36614418  14.90277100  48.06361008
H    18.84000015  15.11000061  49.52000046
H    17.60000038  16.42000008  44.86000061
H    19.98999977  16.26000023  44.18000031
H    22.07999992  15.52000046  44.52999878
H    21.21000099  14.60000038  48.68000031
H    12.71999931  15.98000050  48.87000275
H    23.85000038  15.08999920  46.35000229
H    23.29000092  13.50999928  46.98999786
S    11.72999954  17.75000000  50.79000092
C     9.02999973  17.97999954  51.49000168
C    10.29999924  17.54999924  51.81000137
C    10.67999935  17.17000008  53.13999939
C     9.68000031  17.00000000  54.06999969
C     8.34999943  17.40999985  53.80000305
C     7.26999998  17.15999985  54.69999695
C     5.98999977  17.54999924  54.38999939
C     5.69999981  18.15000153  53.13999939
C     6.71000004  18.35000038  52.22999954
C     8.02999973  17.89999962  52.49000168
C    12.11999989  17.01000023  53.25000000
C    12.86999893  17.31999969  52.08000183
C    14.23999977  17.10000038  52.01000214
C     4.33999968  18.63000107  52.68000031
H     3.99732828  17.97321320  51.88043213
H     8.86999989  18.38000107  50.48999786
H     9.92000008  16.61999893  55.06999969
H     7.46000004  16.63999939  55.63999939
H     5.25000000  17.40999985  55.18000031
H     6.47000027  18.88000107  51.30000305
H    14.57999992  17.30999947  51.00000000
H     3.61999989  18.65999985  53.50999832
H     4.41000032  19.68000031  52.36000061
S    15.26000023  15.82999992  55.58000183
C    17.93000031  15.43000031  54.92000198
C    16.65999985  15.75000000  54.48999786
C    16.42000008  16.32999992  53.20999908
C    17.47999954  16.39000130  52.32999802
C    18.81000137  16.13000107  52.74000168
C    19.90999985  16.18999863  51.83000183
C    21.15999985  15.77999973  52.22000122
C    21.40000153  15.34000015  53.54999924
C    20.34000015  15.14999962  54.40000153
C    19.04999924  15.65000057  54.06999969
C    15.01000023  16.70999908  53.09999847
C    14.26000023  16.51000023  54.29000092
C    12.88000011  16.61000061  54.36000061
C    22.79999924  14.96000099  53.99000168
H    23.19158936  15.54382324  54.82301331
H    18.06999969  15.11999989  55.94999695
H    17.38000107  16.87000084  51.36000061
H    19.67000008  16.46999931  50.80999756
H    21.91999817  15.65000057  51.45999908
H    20.48999977  14.45000076  55.21999741
H    12.38000011  16.31999969  55.28999710
H    23.43000031  14.93000031  53.09000015
H    22.73999977  13.86999989  54.12000275
