96

S    12.10999966  16.95000076  44.86000061
C     9.46000004  17.28000069  45.63000107
C    10.71000004  16.79000092  45.93000031
C    11.06999969  16.32999992  47.23999786
C    10.11999989  16.32999992  48.23999786
C     8.76999950  16.61000061  47.90999985
C     7.72000027  16.55999947  48.88000107
C     6.44000006  16.95999908  48.60000229
C     6.14000034  17.35999870  47.27000427
C     7.11000013  17.53000069  46.31000137
C     8.43000031  17.07999992  46.59000015
C    12.51000023  16.18000031  47.36999893
C    13.21000004  16.53000069  46.18999863
C    14.60000038  16.48999977  46.07999802
C     4.76000023  17.80999947  46.84999847
H     4.50378609  17.26910400  45.93901825
H     9.32999992  17.87999916  44.72999954
H    10.44000053  16.10000038  49.25000000
H     8.01999950  16.38000107  49.91000366
H     5.64000034  17.06999969  49.33000183
H     6.94000006  18.11000061  45.40999985
H    14.98999977  16.87999916  45.14999771
H     4.00000000  17.57999992  47.61000061
H     4.72000027  18.89000130  46.65000153
S    15.81999969  15.64000034  49.75000000
C    18.52000046  15.51000023  48.93000031
C    17.20999908  15.80000019  48.66000366
C    16.82999992  16.22999954  47.35000229
C    17.79000092  16.67000008  46.45000076
C    19.13999939  16.39000130  46.73999786
C    20.17000008  16.36999893  45.75000000
C    21.44000053  15.86999989  45.84999847
C    21.73999977  15.15999985  47.04999924
C    20.79000092  15.13000011  48.04999924
C    19.54000092  15.80999947  47.98999786
C    15.39999962  16.09000015  47.15999985
C    14.70999908  15.86999989  48.37999725
C    13.32999992  15.82999992  48.46000290
C    23.12999916  14.63999939  47.29999924
H    23.55707550  15.10266685  48.18974304
H    18.84000015  14.88000011  49.75999832
H    17.47999954  17.05999947  45.47999954
H    19.92000008  16.90000153  44.82999802
H    22.20000076  16.01000023  45.08999634
H    20.88999939  14.37999916  48.82999802
H    12.92000008  15.44999981  49.40000153
H    23.75999832  14.96999931  46.45000076
H    23.02999878  13.55000019  47.38999939
S    15.95000076  13.22000027  52.44999695
C    18.53000069  12.56000042  51.65999985
C    17.19000053  12.57999992  51.35000229
C    16.69999886  12.05999947  50.10000229
C    17.61999893  11.56000042  49.20000076
C    19.02000046  11.71000004  49.36999893
C    19.96000099  11.35000038  48.36999893
C    21.28999901  11.26999950  48.75000000
C    21.77999878  11.77000046  49.98000336
C    20.85000038  12.17000008  50.90999985
C    19.45000076  12.20000076  50.65000153
C    15.25000000  12.20000076  50.06999969
C    14.72000027  12.69999981  51.29000092
C    13.35999966  12.96000004  51.44000244
C    23.25000000  11.61999893  50.33000183
H    23.47757149  11.96135616  51.33984756
H    18.89999962  12.67000008  52.68000031
H    17.19000053  11.06999969  48.34000015
H    19.67000008  11.13999939  47.34000397
H    21.97000122  10.77000046  48.06999969
H    21.11999893  12.18999958  51.95999908
H    12.98999977  13.43000031  52.36000061
H    23.54999924  10.55999947  50.35999680
H    23.85999870  12.13000107  49.58000183
S    11.78999996  12.11999989  47.84999847
C     9.21000004  12.81999969  48.75999832
C    10.54999924  12.64999962  49.01000214
C    11.09000015  13.03999996  50.27000046
C    10.29000092  13.60000038  51.25999832
C     8.89999962  13.73999977  51.02000427
C     7.96000004  14.14999962  52.00000000
C     6.61999989  14.34000015  51.72999954
C     6.11999989  13.94999981  50.45999908
C     6.97000027  13.52000046  49.45999908
C     8.34999943  13.36999989  49.75000000
C    12.53000069  12.82999992  50.33000183
C    13.02999973  12.28000069  49.12000275
C    14.37000084  11.95000076  49.01000214
C     4.67000008  14.22000027  50.15999603
H     4.45025969  13.80887318  49.17470932
H     8.73000050  12.46999931  47.84999847
H    10.59999943  13.78999901  52.28000259
H     8.30000019  14.52000046  52.97000122
H     5.93999958  14.78999996  52.44999695
H     6.63999987  13.25000000  48.46000290
H    14.70999908  11.54999924  48.06000137
H     4.46999979  15.29999924  50.17000198
H     4.00999975  13.66000080  50.84000015
