96

S    12.46999931  16.79000092  44.08000183
C     9.84000015  17.05999947  44.80999756
C    11.10000038  16.65999985  45.20000076
C    11.46000004  16.26000023  46.52000046
C    10.46000004  16.28000069  47.48000336
C     9.13999939  16.63999939  47.11999893
C     8.03999996  16.62999916  48.02000046
C     6.74000025  16.84000015  47.63000107
C     6.44000006  17.32999992  46.32999802
C     7.49000025  17.43999863  45.43000031
C     8.80999947  17.04000092  45.77999878
C    12.90999985  16.25000000  46.68000031
C    13.56999969  16.57999992  45.47000122
C    14.94999981  16.50000000  45.35999680
C     5.03999996  17.78000069  46.00000000
H     4.64841270  17.19617844  45.16698456
H     9.55000019  17.51000023  43.86000061
H    10.67999935  15.86999989  48.46000290
H     8.30999947  16.42000008  49.05000305
H     5.89999962  16.80999947  48.31999969
H     7.30000019  17.84000015  44.43999863
H    15.40999985  16.55999947  44.38000107
H     4.42000008  17.69000053  46.90999985
H     5.09999990  18.85000038  45.79000092
S    16.25000000  15.73999977  49.02999878
C    18.79999924  15.03999901  48.09999847
C    17.53999901  15.52999973  47.84000015
C    17.17000008  15.90999985  46.51000214
C    18.11000061  15.93999958  45.50000000
C    19.45000076  15.53999996  45.72999954
C    20.48999977  15.59000015  44.75999832
C    21.78999901  15.52000046  45.19000244
C    22.11999893  14.96000099  46.45000076
C    21.12999916  14.80999947  47.38999939
C    19.78000069  15.11999989  47.06999969
C    15.73999977  16.20000076  46.46999741
C    15.10000038  16.07999992  47.72999573
C    13.71000099  16.06999969  47.81000137
C    23.54000092  14.73000050  46.90000153
H    23.83131599  15.31262970  47.77394485
H    19.03000069  14.65999985  49.09000015
H    17.79000092  16.34000015  44.54000092
H    20.32999992  16.03999901  43.79000092
H    22.56000137  15.93000031  44.54000092
H    21.31000137  14.75999928  48.46000290
H    13.19000053  15.72000027  48.69999695
H    24.21999931  14.96000099  46.06999969
H    23.61999893  13.66000080  47.09999847
S    16.43000031  12.97000027  52.19999695
C    18.96999931  12.03999996  51.42000198
C    17.65999985  12.30999947  51.10000229
C    17.21999931  12.09000015  49.75999832
C    18.06999969  11.69000053  48.75000000
C    19.45000076  11.51999950  49.05000305
C    20.52000046  11.32999992  48.13999939
C    21.84999847  11.16000080  48.46000290
C    22.22999954  11.13999939  49.82999802
C    21.25000000  11.40999985  50.75000000
C    19.88999939  11.67000008  50.40999985
C    15.78999996  12.38000011  49.65999985
C    15.25000000  12.88000011  50.86999893
C    13.92000008  13.27999973  50.91999817
C    23.55999947  10.59000015  50.27999878
H    23.79528809  10.93936825  51.28532410
H    19.29000092  12.44999981  52.36999893
H    17.78000069  11.61999893  47.70999908
H    20.27000046  11.14999962  47.09000015
H    22.63999939  10.95000076  47.74000168
H    21.45999908  11.31999969  51.81999969
H    13.47000027  13.75000000  51.79000092
H    23.54000092   9.51000023  50.10000229
H    24.31999969  10.98000050  49.59000015
S    12.43999958  12.60000038  47.30999756
C     9.80000019  12.93000031  48.09000015
C    11.13000011  12.94999981  48.44999695
C    11.61000061  13.34000015  49.73999786
C    10.65999985  13.63000011  50.70000076
C     9.28999996  13.40999985  50.44000244
C     8.31999969  13.68999958  51.45000076
C     7.00999975  13.78999901  51.04999924
C     6.56000042  13.64999962  49.71000290
C     7.46999979  13.31999969  48.72000122
C     8.82999992  13.14000034  49.09999847
C    13.04999924  13.15999985  49.82999802
C    13.61999989  12.67000008  48.62999725
C    14.93000031  12.20999908  48.56999969
C     5.17000008  14.11999893  49.33000183
H     4.75112057  13.57332611  48.48514175
H     9.51000023  12.71000004  47.05999756
H    10.95999908  13.86000061  51.72000122
H     8.76000023  14.09000015  52.35000229
H     6.32999992  14.13000011  51.83000183
H     7.25000000  13.30000019  47.65999603
H    15.22999954  11.78999996  47.62000275
H     5.18000031  15.21000004  49.27000046
H     4.61000013  13.83999920  50.22999573
