96

S    12.28000069  16.97999954  44.50000000
C     9.63000011  17.54999924  45.18000031
C    10.90000057  17.22999954  45.59000015
C    11.26000023  16.87000084  46.93000031
C    10.25000000  16.72999954  47.85999680
C     8.93999958  17.15999985  47.54000092
C     7.78999996  17.05999947  48.36999893
C     6.54999971  17.54999924  48.01000214
C     6.30000019  18.11000061  46.72999954
C     7.35000038  18.06999969  45.84999847
C     8.67000008  17.65999985  46.22000122
C    12.64999962  16.46999931  47.09999847
C    13.31999969  16.52000046  45.86000061
C    14.68999958  16.34000015  45.70000076
C     4.88000011  18.47999954  46.33999634
H     4.49480820  17.78808212  45.59101105
H     9.32999992  17.79000092  44.15999985
H    10.50000000  16.23999977  48.80000305
H     7.90999985  16.47999954  49.27999878
H     5.75000000  17.29999924  48.68999863
H     7.23000002  18.29000092  44.79000092
H    15.08999920  16.67000008  44.75000000
H     4.28000021  18.53999901  47.25999832
H     4.86000013  19.51000023  45.96000290
S    15.90999985  15.55999947  49.41999817
C    18.60000038  15.14999962  48.46000290
C    17.29999924  15.57000065  48.30999756
C    16.84000015  15.85999966  46.97999954
C    17.77000046  16.03999901  45.97000122
C    19.14999962  15.86999989  46.18999863
C    20.10000038  15.90999985  45.13000107
C    21.40999985  15.54999924  45.35999680
C    21.83000183  14.98999977  46.59999847
C    20.88999939  14.75999928  47.56999969
C    19.56999969  15.29000092  47.43999863
C    15.39999962  16.03999901  46.86999893
C    14.75000000  15.92000008  48.11999893
C    13.36999989  16.05999947  48.23999786
C    23.26999855  14.73999977  46.98999786
H    23.58933449  15.25093651  47.89833069
H    18.94000053  14.77000046  49.41999817
H    17.32999992  16.45000076  45.06000137
H    19.88999939  16.40999985  44.19000244
H    22.11999893  15.47999954  44.54000092
H    21.21000099  14.51000023  48.56999969
H    12.81000042  15.80999947  49.13000107
H    23.88000107  14.96000099  46.11000061
H    23.31999969  13.68000031  47.27000427
S    11.72999954  17.21999931  50.90000153
C     9.03999996  17.53000069  51.72000122
C    10.31000042  17.05000114  51.95000076
C    10.69000053  16.69000053  53.27999878
C     9.76000023  16.57999992  54.29000092
C     8.47000027  17.13999939  54.12000275
C     7.42000008  17.02000046  55.06999969
C     6.14000034  17.46999931  54.79999924
C     5.80999947  17.92000008  53.48999786
C     6.81999969  18.09000015  52.57999802
C     8.15999985  17.65999985  52.81999969
C    12.13000107  16.48999977  53.40999985
C    12.84999943  16.80999947  52.22999954
C    14.22999954  16.97000122  52.18999863
C     4.38000011  18.18000031  53.09000015
H     4.05373335  17.64804459  52.19631577
H     8.73000050  18.00000000  50.79000092
H     9.85999966  15.92000008  55.14999771
H     7.65999985  16.31999969  55.86999893
H     5.32999992  17.67000008  55.47999954
H     6.53999996  18.36000061  51.56000137
H    14.75000000  17.35000038  51.31000137
H     3.75000000  17.89999962  53.94000244
H     4.23000002  19.26000023  52.97000122
S    15.36999893  16.01000023  55.81999969
C    17.97000122  15.52000046  54.85000229
C    16.75000000  16.13000107  54.71000290
C    16.42000008  16.69000053  53.43999863
C    17.34000015  16.84000015  52.42000198
C    18.67000008  16.42000008  52.64999771
C    19.65999985  16.44000053  51.63000107
C    20.95000076  16.03000069  51.88000107
C    21.27000046  15.52999973  53.16999817
C    20.29000092  15.22999954  54.08000183
C    18.97999954  15.73999977  53.88000107
C    14.96000099  16.67000008  53.34000015
C    14.22000027  16.36999893  54.51000214
C    12.84000015  16.35000038  54.61000061
C    22.72999954  15.26999950  53.47999954
H    23.07788467  15.77407551  54.38165665
H    18.22999954  15.01000023  55.77999878
H    17.02000046  17.09000015  51.40999603
H    19.43000031  16.79000092  50.61999893
H    21.70000076  16.17000008  51.10000229
H    20.43999863  14.61999989  54.97000122
H    12.32999992  16.14999962  55.54999924
H    23.26999855  15.62999916  52.60000229
H    22.88999939  14.19000053  53.62999725
