96

S    12.25000000  16.81999969  44.45999908
C     9.48999977  16.92000008  45.12000275
C    10.78999996  16.61000061  45.44000244
C    11.16000080  16.20000076  46.77000046
C    10.17000008  16.20000076  47.72999573
C     8.82000065  16.53000069  47.44999695
C     7.86000013  16.75000000  48.47999954
C     6.58999968  17.19000053  48.15999985
C     6.17999983  17.42000008  46.83000183
C     7.11999989  17.27000046  45.83000183
C     8.47999954  16.94000053  46.11000061
C    12.58999920  16.04999924  46.97999954
C    13.30999947  16.40999985  45.81999969
C    14.70000076  16.47999954  45.86000061
C     4.75000000  17.81999969  46.52999878
H     4.45826292  17.36460686  45.58363342
H     9.26000023  17.30999947  44.13999939
H    10.50000000  15.95000076  48.73000336
H     8.15999985  16.67000008  49.52000046
H     5.98999977  17.38999939  49.03999710
H     6.84999990  17.40999985  44.79000092
H    15.14000034  16.64999962  44.88999939
H     4.00999975  17.56000137  47.29000092
H     4.76999998  18.90999985  46.39999771
S    15.70000076  15.19000053  49.45999908
C    18.37000084  14.60000038  48.63999939
C    17.12000084  15.13000011  48.40000153
C    16.79000092  15.72999954  47.14000320
C    17.75000000  15.84000015  46.14999771
C    19.07999992  15.44000053  46.40999603
C    20.15999985  15.44000053  45.48999786
C    21.45000076  15.01999950  45.72999954
C    21.73000145  14.55999947  47.04000092
C    20.72000122  14.44000053  47.95999908
C    19.38999939  14.85000038  47.68000031
C    15.39000034  16.10999870  47.02000046
C    14.61999989  15.72000027  48.15000153
C    13.23999977  15.81999969  48.20000076
C    23.15000153  14.25000000  47.48000336
H    23.51494217  14.90117264  48.27429199
H    18.52000046  13.97999954  49.52000046
H    17.50000000  16.10000038  45.12000275
H    20.07999802  15.95999908  44.52999878
H    22.26000023  15.36000061  45.08999634
H    20.89999962  14.06999969  48.96999741
H    12.64000034  15.53999996  49.06999969
H    23.78999901  14.32000065  46.59000015
H    23.09999847  13.20000076  47.77999878
S    11.46000004  16.97000122  51.46999741
C     8.86999989  17.59000015  52.21000290
C    10.07999992  17.05000114  52.56999969
C    10.42000008  16.72000122  53.92000198
C     9.46000004  16.77999878  54.91000366
C     8.14000034  17.11000061  54.52000046
C     7.04999971  17.10000038  55.44000244
C     5.77000046  17.47999954  55.11000061
C     5.51999998  18.00000000  53.81000137
C     6.56000042  18.13999939  52.91999817
C     7.83999968  17.57999992  53.18999863
C    11.85999966  16.57999992  54.08000183
C    12.55000019  16.67000008  52.84000015
C    13.90999985  16.46000099  52.64999771
C     4.11999989  18.39999962  53.40000153
H     3.67866802  17.68817329  52.70241165
H     8.71000004  17.95999908  51.19999695
H     9.70000076  16.45000076  55.91999817
H     7.13999987  16.55999947  56.37000275
H     5.00000000  17.32999992  55.86000061
H     6.32999992  18.56999969  51.95000076
H    14.32999992  16.72999954  51.68000031
H     3.58000016  18.70000076  54.29999924
H     4.32000017  19.42000008  53.02999878
S    15.03000069  15.64000034  56.40999603
C    17.65999985  15.11999989  55.63000107
C    16.39000130  15.52999973  55.27999878
C    16.04999924  15.88999939  53.94000244
C    17.05000114  15.93000031  52.98999786
C    18.38999939  15.67999935  53.36999893
C    19.40000153  15.65000057  52.36000061
C    20.65000153  15.17000008  52.68000031
C    21.00000000  14.86999989  54.02000046
C    20.06000137  14.88999939  55.02999878
C    18.71999931  15.26999950  54.71000290
C    14.65000057  16.27000046  53.81999969
C    14.01999950  16.25000000  55.08999634
C    12.63000011  16.31000137  55.21999741
C    22.46000099  14.70999908  54.36999893
H    22.75947189  15.23763943  55.27554321
H    17.71000099  14.59000015  56.58000183
H    16.79000092  16.21000099  51.97000122
H    19.19999886  15.82999992  51.31000137
H    21.38999939  14.94999981  51.91999817
H    20.27000046  14.60999966  56.05999756
H    12.20000076  15.92000008  56.13999939
H    22.93000031  15.00000000  53.41999817
H    22.69000053  13.63999939  54.45000076
