96

S    12.42000008  16.97000122  44.22000122
C     9.72999954  17.31999969  44.94999695
C    11.00999928  16.92000008  45.28999710
C    11.28000069  16.43000031  46.59999847
C    10.31999969  16.43000031  47.60000229
C     9.00000000  16.72999954  47.21000290
C     7.92000008  16.63999939  48.13999939
C     6.61999989  16.95000076  47.83000183
C     6.32999992  17.38999939  46.51000214
C     7.31999969  17.46999931  45.54999924
C     8.67000008  17.20000076  45.89000320
C    12.71999931  16.25000000  46.72000122
C    13.48999977  16.61999893  45.59000015
C    14.88000011  16.67000008  45.59000015
C     4.90999985  17.78000069  46.17000198
H     4.50462198  17.09725952  45.42325592
H     9.61000061  17.94000053  44.06999969
H    10.51000023  16.22999954  48.64999771
H     8.23000050  16.18999863  49.08000183
H     5.75999975  16.77000046  48.47000122
H     7.18999958  17.80999947  44.52999878
H    15.43000031  16.87000084  44.68000031
H     4.39000034  17.52000046  47.09999847
H     4.94000006  18.84000015  45.89000320
S    15.86999989  15.80000019  49.33000183
C    18.56999969  15.52000046  48.68999863
C    17.29999924  15.84000015  48.27999878
C    16.95000076  16.10999870  46.91999817
C    17.97999954  16.18999863  46.00000000
C    19.27999878  15.76000023  46.33999634
C    20.40999985  15.78999996  45.45999908
C    21.60000038  15.19000053  45.79999924
C    21.84000015  14.77000046  47.12999725
C    20.82999992  14.82999992  48.06000137
C    19.55999947  15.34999943  47.69000244
C    15.52000046  16.34000015  46.79000092
C    14.77000046  16.10999870  47.97999954
C    13.38999939  15.98999977  47.93000031
C    23.16999817  14.19999981  47.56000137
H    23.36900520  14.59801197  48.55503082
H    18.68000031  15.00000000  49.64000320
H    17.71000099  16.52000046  45.00000000
H    20.36000061  16.31999969  44.52000046
H    22.43000031  15.03999901  45.11000061
H    20.90999985  14.40999985  49.06999969
H    12.76000023  15.75000000  48.77999878
H    24.04000092  14.51000023  46.97000122
H    23.01000214  13.12000084  47.44999695
S    16.03000069  13.21000004  52.00000000
C    18.65999985  12.44999981  51.35000229
C    17.34000015  12.58999920  50.97999954
C    16.84999847  12.17000008  49.69999695
C    17.77000046  11.67000008  48.80000305
C    19.14999962  11.56999969  49.12000275
C    20.10999870  11.13000011  48.16999817
C    21.44000053  10.98999977  48.48999786
C    21.84999847  11.36000061  49.79999924
C    20.98999977  11.84999943  50.75000000
C    19.61000061  11.96000004  50.41999817
C    15.40999985  12.31999969  49.56999969
C    14.82999992  12.92000008  50.72000122
C    13.52000046  13.36999989  50.83000183
C    23.26000023  10.93999958  50.17000198
H    23.51607704  11.28143597  51.17296982
H    18.98999977  12.64999962  52.36000061
H    17.46999931  11.39000034  47.78999710
H    19.73999977  10.82999992  47.19999695
H    22.13000107  10.53999996  47.77000046
H    21.22999954  12.05999947  51.79999924
H    13.17000008  13.97999954  51.65999985
H    23.39999962   9.85999966  50.06000137
H    23.95000076  11.39999962  49.45999908
S    11.90999985  11.95000076  47.50999832
C     9.30000019  12.79000092  48.23999786
C    10.64000034  12.65999985  48.53000259
C    11.21999931  13.30000019  49.68000031
C    10.39000034  13.81999969  50.65000153
C     8.98999977  13.80000019  50.45000076
C     8.14000034  14.42000008  51.42000198
C     6.78999996  14.56999969  51.18999863
C     6.24000025  14.04000092  50.00000000
C     7.00999975  13.45999908  49.02000046
C     8.42000008  13.34000015  49.20999908
C    12.64999962  13.04999924  49.79000092
C    13.20000076  12.44999981  48.62999725
C    14.52999973  12.06999969  48.50999832
C     4.75000000  13.96999931  49.72999954
H     4.59357834  13.45096397  48.78435898
H     8.78999996  12.56999969  47.30999756
H    10.85000038  14.22000027  51.55000305
H     8.60999966  14.78000069  52.32999802
H     6.11999989  15.00000000  51.91999817
H     6.63000011  13.21000004  48.04000092
H    14.78999996  11.51999950  47.61000061
H     4.36999989  15.00000000  49.82999802
H     4.13000011  13.42000008  50.44000244
