96

S    12.02000046  16.90000153  44.55999756
C     9.35000038  17.34000015  45.28999710
C    10.59000015  16.84000015  45.59999847
C    10.88999939  16.27000046  46.88999939
C     9.82999992  16.11999893  47.77000046
C     8.53999996  16.62999916  47.50999832
C     7.42000008  16.51000023  48.37999725
C     6.17000008  16.98999977  48.06999969
C     5.95000029  17.53000069  46.77000046
C     6.97000027  17.60000038  45.84999847
C     8.27999973  17.20999908  46.22000122
C    12.30999947  16.11999893  47.15999985
C    13.00000000  16.45000076  45.96000290
C    14.39000034  16.57999992  45.90999985
C     4.61000013  18.11000061  46.36000061
H     4.26051140  17.58933449  45.46844864
H     9.22000027  17.63000107  44.25000000
H     9.98000050  15.47000027  48.62999725
H     7.60999966  15.97000027  49.31000137
H     5.35000038  16.82999992  48.75999832
H     6.71000004  18.02000046  44.87999725
H    14.93000031  16.87999916  45.01999664
H     3.94000006  17.98999977  47.22000122
H     4.53000021  19.18000031  46.13999939
S    15.59000015  15.10000038  49.41999817
C    18.32999992  15.13000011  48.67000198
C    17.01000023  15.36000061  48.37999725
C    16.61000061  16.09000015  47.22000122
C    17.56999969  16.46000099  46.29000092
C    18.90999985  16.04999924  46.45999908
C    19.92000008  16.18000031  45.47000122
C    21.22999954  15.88000107  45.75000000
C    21.65999985  15.59000015  47.06999969
C    20.69999886  15.26999950  48.01000214
C    19.31999969  15.47999954  47.71999741
C    15.17000008  16.20000076  47.01000214
C    14.51000023  15.73999977  48.16999817
C    13.12000084  15.73999977  48.22999954
C    23.09999847  15.21999931  47.34000397
H    23.33508873  15.14163685  48.40146255
H    18.56999969  14.50000000  49.52000046
H    17.26000023  16.84000015  45.31999969
H    19.68000031  16.61999893  44.50000000
H    21.97000122  16.15999985  45.00000000
H    20.92000008  14.75000000  48.94000244
H    12.71000004  15.59000015  49.22999954
H    23.87000084  15.80000019  46.84000015
H    23.16999817  14.23999977  46.86000061
S    15.72999954  12.72999954  52.72999573
C    18.38000107  12.22000027  51.88000107
C    17.02999878  12.20999908  51.63999939
C    16.54000092  11.85999966  50.34000015
C    17.42000008  11.50000000  49.34000015
C    18.79999924  11.30000019  49.62999725
C    19.70999908  10.92000008  48.60000229
C    21.01000023  10.67000008  48.96999741
C    21.54999924  11.09000015  50.21999741
C    20.69000053  11.64000034  51.13999939
C    19.27999878  11.69000053  50.91999817
C    15.11999989  12.10000038  50.19000244
C    14.55999947  12.56000042  51.40999603
C    13.22999954  12.96000004  51.52000046
C    23.02000046  10.90999985  50.52000046
H    23.31011009  11.19303322  51.53184509
H    18.79999924  12.44999981  52.85999680
H    17.06999969  11.51999950  48.30999756
H    19.27999878  10.72000027  47.62000275
H    21.73999977  10.26999950  48.27999878
H    21.02999878  11.87000084  52.15000153
H    12.84000015  13.35999966  52.44999695
H    23.19000053   9.82999992  50.45000076
H    23.61999893  11.31999969  49.71000290
S    11.77999973  12.22000027  47.88999939
C     9.15000057  12.77999973  48.69999695
C    10.47999954  12.65999985  49.01000214
C    10.98000050  13.01000023  50.31000137
C    10.06999969  13.40000057  51.27999878
C     8.67999935  13.27000046  51.06999969
C     7.72000027  13.63999939  52.05999756
C     6.38999987  13.81000042  51.75000000
C     5.92999983  13.59000015  50.43000031
C     6.83000040  13.22999954  49.45000076
C     8.21000004  13.03999996  49.72999954
C    12.42000008  12.88000011  50.38000107
C    13.00000000  12.41000080  49.18000031
C    14.29999924  11.92999935  49.06999969
C     4.50000000  13.89000034  50.04000092
H     4.18033886  13.43537140  49.10232925
H     8.85999966  12.81000042  47.64999771
H    10.29999924  13.80000019  52.27000427
H     8.13000011  13.96999931  53.01000214
H     5.60999966  14.22000027  52.38999939
H     6.50000000  13.07999992  48.41999817
H    14.61999989  11.33999920  48.20999908
H     4.41000032  14.98000050  50.00999832
H     3.91000009  13.53999996  50.90000153
