96

S    12.15000057  17.00000000  44.10999680
C     9.48000050  17.61000061  44.73999786
C    10.67999935  17.05999947  45.10000229
C    11.02000046  16.65999985  46.44000244
C     9.98999977  16.59000015  47.36000061
C     8.69999981  17.06999969  47.02999878
C     7.57999992  16.95999908  47.90999985
C     6.30000019  17.30999947  47.56000137
C     6.05000019  17.88999939  46.29000092
C     7.13000011  18.06999969  45.45999908
C     8.43000031  17.54999924  45.70000076
C    12.43999958  16.36999893  46.60999680
C    13.22999954  16.68000031  45.47999954
C    14.61999989  16.59000015  45.52000046
C     4.61000013  18.22999954  45.97000122
H     4.24095821  17.64805031  45.12546539
H     9.23999977  18.20000076  43.86000061
H    10.26999950  16.13999939  48.30999756
H     7.81000042  16.64999962  48.93000031
H     5.45000029  17.15999985  48.20999908
H     6.90999985  18.64999962  44.56999969
H    15.19999981  16.81999969  44.62999725
H     4.02999973  18.09999847  46.88999939
H     4.51000023  19.29000092  45.72000122
S    15.47999954  15.34000015  49.20999908
C    18.13999939  14.68999958  48.50000000
C    16.93000031  15.27999973  48.20000076
C    16.65999985  15.90999985  46.93999863
C    17.70000076  16.02000046  46.04000092
C    18.93000031  15.38000011  46.29000092
C    19.97999954  15.42000008  45.31999969
C    21.22999954  15.06000042  45.75000000
C    21.50000000  14.29999924  46.93000031
C    20.45000076  14.13000011  47.80000305
C    19.17000008  14.70000076  47.54000092
C    15.25000000  16.18999863  46.70999908
C    14.48999977  15.95999908  47.88000107
C    13.09999943  16.02000046  47.78999710
C    22.93000031  14.07999992  47.37999725
H    23.19989014  14.68369961  48.24648666
H    18.32999992  14.09999943  49.40000153
H    17.53999901  16.53000069  45.08999634
H    19.79999924  15.88000107  44.36000061
H    22.11999893  15.19999981  45.14999771
H    20.59000015  13.78999901  48.81999969
H    12.46000099  15.95999908  48.67000198
H    23.62999916  14.21000004  46.55000305
H    23.03999901  13.00000000  47.56000137
S    11.79999924  17.20999908  50.79000092
C     9.13000011  17.73999977  51.59000015
C    10.38000011  17.22999954  51.86000061
C    10.65000057  16.79000092  53.20000076
C     9.72999954  16.80999947  54.22999954
C     8.43000031  17.32999992  53.95999908
C     7.36000013  17.38000107  54.88999939
C     6.11999989  17.92000008  54.62999725
C     5.88000011  18.30999947  53.29000092
C     6.85999966  18.27999878  52.32999802
C     8.17000008  17.79999924  52.63000107
C    12.07999992  16.54000092  53.31999969
C    12.86000061  16.79999924  52.15999985
C    14.23999977  16.69999886  52.15999985
C     4.41000032  18.55999947  53.00000000
H     4.08348513  17.85728264  52.23339844
H     8.86999989  18.13999939  50.61999893
H     9.98000050  16.36999893  55.18000031
H     7.55999994  16.87999916  55.84000015
H     5.36000013  17.94999886  55.40000153
H     6.61999989  18.53999901  51.30000305
H    14.77000046  16.59000015  51.22000122
H     3.82999992  18.46999931  53.92000198
H     4.28000021  19.55999947  52.58999634
S    15.29000092  15.90999985  55.84000015
C    17.94000053  15.34000015  55.11000061
C    16.68000031  15.76000023  54.75999832
C    16.39000130  16.21000099  53.43000031
C    17.36999893  16.10999870  52.45999908
C    18.63000107  15.57999992  52.83000183
C    19.67000008  15.55999947  51.86000061
C    20.96999931  15.21000004  52.12999725
C    21.25999832  14.77000046  53.44999695
C    20.29999924  14.68000031  54.43000031
C    19.00000000  15.21000004  54.18000031
C    14.96000099  16.47999954  53.34000015
C    14.18000031  16.25000000  54.50000000
C    12.79000092  16.34000015  54.51000214
C    22.70999908  14.50000000  53.77999878
H    22.88790131  14.77752781  54.81895447
H    18.20000076  15.11000061  56.13999939
H    17.13999939  16.53000069  51.47999573
H    19.44000053  15.98000050  50.87999725
H    21.73999977  15.15999985  51.37000275
H    20.56999969  14.35999966  55.43000031
H    12.30000019  16.09000015  55.44000244
H    23.31999969  15.14999962  53.13999939
H    23.02999878  13.48000050  53.55999756
