96

S    12.25999928  16.87000084  44.34999847
C     9.56999969  17.23999977  45.08999634
C    10.86999989  17.00000000  45.45000076
C    11.19999981  16.60000038  46.77999878
C    10.17000008  16.57999992  47.70000076
C     8.84000015  16.90999985  47.36999893
C     7.73999977  16.97999954  48.27999878
C     6.44999981  17.20000076  47.85999680
C     6.11999989  17.45000076  46.50000000
C     7.14999962  17.47999954  45.59000015
C     8.48999977  17.25000000  46.02000427
C    12.63000011  16.31999969  46.88999939
C    13.34000015  16.36000061  45.66999817
C    14.72000027  16.26000023  45.56000137
C     4.72000027  17.79000092  46.04999924
H     4.44893312  17.39053345  45.07273483
H     9.30999947  17.39999962  44.05000305
H    10.42000008  16.21999931  48.69999695
H     7.97999954  16.80999947  49.33000183
H     5.59000015  16.97999954  48.48999786
H     6.98999977  17.42000008  44.52000046
H    15.19000053  16.61999893  44.65000153
H     4.05000019  17.46999931  46.86000061
H     4.74000025  18.88000107  45.94999695
S    15.80999947  15.43000031  49.31999969
C    18.48999977  14.89999962  48.54999924
C    17.20000076  15.26000023  48.22999954
C    16.81999969  15.67999935  46.91999817
C    17.82999992  15.81999969  45.97999954
C    19.13999939  15.36999893  46.25999832
C    20.19000053  15.65999985  45.34000015
C    21.51000023  15.36999893  45.59999847
C    21.84999847  14.77000046  46.84000015
C    20.85000038  14.47000027  47.74000168
C    19.47999954  14.80999947  47.54000092
C    15.39000034  15.88000107  46.72999954
C    14.70999908  15.77999973  47.97000122
C    13.34000015  15.98000050  48.04999924
C    23.26999855  14.45000076  47.22000122
H    23.56087112  14.89694786  48.17065048
H    18.84000015  14.75000000  49.56999969
H    17.71999931  16.28999901  45.00999832
H    20.09000015  16.43000031  44.56999969
H    22.34000015  15.86999989  45.11000061
H    21.15999985  13.96000004  48.64999771
H    12.97999954  15.86999989  49.06999969
H    23.95000076  14.73999977  46.40999603
H    23.42000008  13.35999966  47.23999786
S    15.93000031  12.79999924  52.22000122
C    18.56999969  12.23999977  51.47999573
C    17.23999977  12.32999992  51.12999725
C    16.76000023  11.89000034  49.85000229
C    17.61999893  11.47999954  48.85000229
C    19.01000023  11.47999954  49.09999847
C    19.98999977  11.13000011  48.11999893
C    21.30000114  10.98999977  48.52000427
C    21.75000000  11.46000004  49.79000092
C    20.82999992  12.02000046  50.65000153
C    19.44000053  11.92000008  50.40000153
C    15.31999969  12.10000038  49.73999786
C    14.75999928  12.71999931  50.89000320
C    13.40999985  13.02999973  50.93999863
C    23.19000053  11.23999977  50.17000198
H    23.51801300  11.50383759  51.17543411
H    18.98999977  12.64999962  52.38999939
H    17.12000084  11.13000011  47.95000076
H    19.62000084  10.72999954  47.18000031
H    21.88999939  10.38000011  47.84999847
H    21.07000160  12.39999962  51.63999939
H    13.00000000  13.35000038  51.88999939
H    23.26999855  10.14999962  50.06000137
H    23.90999985  11.64000034  49.45000076
S    11.98999977  12.25999928  47.29999924
C     9.42000008  12.98999977  48.16999817
C    10.77999973  13.00000000  48.37999725
C    11.23000050  13.38000107  49.68000031
C    10.38000011  13.82999992  50.68000031
C     9.00000000  13.92000008  50.41999817
C     8.07999992  14.46000004  51.36000061
C     6.75000000  14.60999966  51.02000427
C     6.25999975  14.04999924  49.81999969
C     7.11000013  13.38000107  48.95999908
C     8.51000023  13.35000038  49.19000244
C    12.60000038  12.92000008  49.79999924
C    13.15999985  12.35000038  48.62999725
C    14.48999977  11.94000053  48.62999725
C     4.79999971  14.19000053  49.45000076
H     4.50940704  13.67260170  48.53569412
H     9.09000015  12.38999939  47.31999969
H    10.77999973  14.00000000  51.68000031
H     8.45000076  14.85999966  52.29999924
H     6.05999994  15.24000072  51.56999969
H     6.70000029  13.12999916  47.98999786
H    14.96999931  11.61999893  47.70999908
H     4.35999966  15.18000031  49.33000183
H     4.26999998  13.73000050  50.30000305
