96

S    12.28000069  17.20999908  44.47000122
C     9.52000046  17.52000046  45.04000092
C    10.77000046  17.07999992  45.40000153
C    11.07999992  16.59000015  46.70999908
C    10.01999950  16.34000015  47.56000137
C     8.71999931  16.81999969  47.25000000
C     7.59999990  16.69999886  48.11000061
C     6.30999994  17.01000023  47.74000168
C     6.05999994  17.57999992  46.45999908
C     7.13000011  17.80999947  45.63000107
C     8.43000031  17.32999992  45.93999863
C    12.48999977  16.34000015  46.97000122
C    13.27000046  16.64999962  45.83000183
C    14.65999985  16.69999886  45.90999985
C     4.65000010  17.97000122  46.09000397
H     4.20141745  17.22948265  45.42780685
H     9.34000015  18.00000000  44.08000183
H    10.19999981  16.01000023  48.57999802
H     7.69999981  16.28999901  49.10999680
H     5.55999994  16.81999969  48.48999786
H     6.94999981  18.38999939  44.72000122
H    15.26999950  16.79000092  45.00999832
H     4.01999998  18.11000061  46.97999954
H     4.76999998  18.93000031  45.56000137
S    15.48999977  15.34000015  49.55999756
C    18.26000023  15.13000011  48.97999573
C    16.97999954  15.47000027  48.61999893
C    16.70999908  16.00000000  47.30999756
C    17.68000031  16.10999870  46.32999802
C    19.00000000  15.71000004  46.63000107
C    20.02000046  15.72999954  45.63000107
C    21.22999954  15.11999989  45.86999893
C    21.51000023  14.75999928  47.21000290
C    20.55000114  14.72000027  48.18999863
C    19.20999908  15.13000011  47.93000031
C    15.29999924  16.25000000  47.06999969
C    14.51000023  15.84000015  48.16999817
C    13.12000084  15.93000031  48.15000153
C    22.90999985  14.22999954  47.48000336
H    23.40218925  14.72932434  48.31458282
H    18.48999977  14.82999992  50.00000000
H    17.38000107  16.42000008  45.33000183
H    19.86999893  16.28999901  44.71000290
H    21.88999939  14.94999981  45.01999664
H    20.65000153  14.21000004  49.15000153
H    12.43999958  15.54999924  48.90999603
H    23.55999947  14.34000015  46.60999680
H    22.86000061  13.14000034  47.57999802
S    15.36999893  12.81999969  52.78999710
C    18.04999924  12.05000019  52.12999725
C    16.70999908  12.18000031  51.81999969
C    16.23999977  11.90999985  50.50000000
C    17.10000038  11.61999893  49.45999908
C    18.47999954  11.52999973  49.75999832
C    19.40000153  11.10999966  48.75999832
C    20.75000000  10.95000076  48.99000168
C    21.24000168  11.26000023  50.27999878
C    20.36999893  11.64999962  51.27999878
C    18.96000099  11.67000008  51.11000061
C    14.85999966  12.30999947  50.27999878
C    14.22999954  12.82999992  51.44000244
C    12.88000011  13.15000057  51.47999573
C    22.70000076  11.03999996  50.59000015
H    23.00591469  11.36014462  51.58600235
H    18.27999878  12.25999928  53.16999817
H    16.73999977  11.19999981  48.53000259
H    19.06999969  10.97000027  47.72999573
H    21.38000107  10.60999966  48.18000031
H    20.69999886  11.96000004  52.27000427
H    12.28000069  13.43000031  52.34000397
H    22.93000031   9.96999931  50.45999908
H    23.31000137  11.65999985  49.92000198
S    11.72000027  12.69000053  47.68000031
C     9.02000046  12.77999973  48.40999985
C    10.34000015  12.88000011  48.76999664
C    10.71000004  13.15000057  50.13000107
C     9.73999977  13.26000023  51.10000229
C     8.38000011  13.25000000  50.73999786
C     7.35000038  13.60999966  51.65999985
C     6.05999994  13.81999969  51.20999908
C     5.66999960  13.53000069  49.87999725
C     6.63999987  13.07999992  49.01000214
C     8.00000000  12.94000053  49.38000107
C    12.15999985  13.03999996  50.27999878
C    12.81999969  12.75000000  49.06999969
C    14.15999985  12.35000038  49.06999969
C     4.23999977  13.71999931  49.43999863
H     3.90601754  13.10888290  48.60149384
H     8.71999931  12.53000069  47.38999939
H    10.11000061  13.31999969  52.11999893
H     7.72000027  13.82999992  52.64999771
H     5.27999973  14.09999943  51.91999817
H     6.30000019  12.82999992  48.00000000
H    14.63000107  12.00000000  48.15000153
H     4.07000017  14.75999928  49.15000153
H     3.54999995  13.48999977  50.27000046
