96

S    12.56999969  17.56000137  44.68000031
C     9.89999962  17.95999908  45.33000183
C    11.14999962  17.54999924  45.72999954
C    11.40999985  17.02000046  47.02999878
C    10.32999992  16.82999992  47.87000275
C     9.02999973  17.22999954  47.47000122
C     7.96000004  17.14999962  48.40999985
C     6.76999998  17.77000046  48.09000015
C     6.51000023  18.29000092  46.79999924
C     7.50000000  18.35000038  45.84999847
C     8.78000069  17.82999992  46.18999863
C    12.84000015  16.87000084  47.29999924
C    13.55000019  17.14999962  46.10000229
C    14.93000031  17.02999878  46.00000000
C     5.10999966  18.70000076  46.38999939
H     4.82485580  18.22951317  45.44902420
H     9.73999977  18.30999947  44.31000137
H    10.54999924  16.54000092  48.88999939
H     8.17000008  16.67000008  49.36000061
H     5.93999958  17.89999962  48.76999664
H     7.42000008  18.89999962  44.91000366
H    15.43000031  17.34000015  45.08999634
H     4.46999979  18.25000000  47.16999817
H     5.03999996  19.78999901  46.52000046
S    16.01000023  16.09000015  49.68000031
C    18.70000076  15.59000015  48.99000168
C    17.43999863  16.00000000  48.62999725
C    17.09000015  16.42000008  47.30999756
C    18.06999969  16.43000031  46.33999634
C    19.37000084  15.95999908  46.63999939
C    20.39999962  15.95000076  45.65999985
C    21.68999863  15.53999996  45.91999817
C    21.98999786  15.11000061  47.23999786
C    21.02999878  15.11000061  48.22000122
C    19.69000053  15.52999973  47.97999954
C    15.67000008  16.70999908  47.15000153
C    14.92000008  16.51000023  48.34000015
C    13.53999996  16.51000023  48.44999695
C    23.38000107  14.75999928  47.70999908
H    23.72896576  15.18730545  48.65007019
H    18.86000061  15.31000042  50.02999878
H    17.77000046  16.70999908  45.33000183
H    20.06999969  16.29999924  44.68999863
H    22.56000137  15.71000004  45.28999710
H    21.32999802  14.92000008  49.25000000
H    13.03999996  16.26000023  49.38000107
H    24.17000008  15.01000023  46.97999954
H    23.46999931  13.67000008  47.80000305
S    11.94000053  17.76000023  51.25000000
C     9.22999954  17.70000076  51.93000031
C    10.52999973  17.38000107  52.25999832
C    10.88000107  17.02999878  53.60000229
C     9.89000034  16.88999939  54.54999924
C     8.55000019  17.21999931  54.25000000
C     7.50000000  17.11000061  55.20000076
C     6.26999950  17.68000031  54.94999695
C     5.91000032  18.04999924  53.62999725
C     6.89000034  18.12000084  52.67000198
C     8.22000027  17.68000031  52.91999817
C    12.31999969  16.95000076  53.81000137
C    12.98999977  17.29999924  52.61000061
C    14.37000084  17.22999954  52.50999832
C     4.56999969  18.68000031  53.30999756
H     4.18423748  18.20136833  52.40988541
H     9.02999973  18.06999969  50.93000031
H    10.06999969  16.46000099  55.54000092
H     7.69000006  16.72000122  56.18999863
H     5.51999998  17.93000031  55.70000076
H     6.71000004  18.60999870  51.72000122
H    14.80000019  17.32999992  51.52000046
H     3.89999986  18.52000046  54.16999817
H     4.61999989  19.78000069  53.25000000
S    15.42000008  15.78999996  56.06999969
C    18.01000023  15.34000015  55.30000305
C    16.84000015  16.01000023  55.02999878
C    16.53000069  16.70999908  53.81000137
C    17.60000038  16.80999947  52.94000244
C    18.86000061  16.22999954  53.20000076
C    19.96000099  16.47999954  52.32999802
C    21.21999931  16.10000038  52.70000076
C    21.47000122  15.39999962  53.90999603
C    20.45000076  15.19000053  54.79999924
C    19.11999893  15.55999947  54.45000076
C    15.10000038  16.94000053  53.67000198
C    14.39000034  16.51000023  54.81999969
C    13.00000000  16.53000069  54.94999695
C    22.90999985  15.03000069  54.22000122
H    23.09536552  15.26527500  55.26803970
H    18.12000084  14.78000069  56.23000336
H    17.53000069  17.32999992  51.97999954
H    19.84000015  17.04000092  51.39999771
H    21.97999954  16.28000069  51.93999863
H    20.68000031  14.77000046  55.77999878
H    12.50000000  16.21999931  55.86000061
H    23.59000015  15.64000034  53.61000061
H    23.03999901  13.96999931  53.97999573
