96

S    12.20999908  17.23999977  44.31000137
C     9.48999977  17.39999962  45.04000092
C    10.76000023  16.94000053  45.28999710
C    11.10000038  16.28999901  46.52999878
C    10.11999989  16.23999977  47.50000000
C     8.78999996  16.68000031  47.25999832
C     7.75000000  16.34000015  48.16999817
C     6.46000004  16.65999985  47.81999969
C     6.14000034  17.46999931  46.70000076
C     7.13000011  17.73999977  45.77999878
C     8.46000004  17.28000069  46.00000000
C    12.53000069  16.13000107  46.70999908
C    13.26000023  16.64999962  45.61000061
C    14.63000107  16.84000015  45.75000000
C     4.67999983  17.82999992  46.51000214
H     4.28791142  17.38088036  45.59749985
H     9.21000004  17.67000008  44.02000046
H    10.42000008  15.72000027  48.40999985
H     8.00000000  15.65999985  48.97999573
H     5.66999960  16.52000046  48.54999924
H     6.83000040  18.32999992  44.92000198
H    15.13000011  17.46999931  45.01999664
H     4.09999990  17.61000061  47.42000198
H     4.65000010  18.90999985  46.32999802
S    15.67999935  15.05000019  49.13000107
C    18.35000038  14.81999969  48.44999695
C    17.13999939  15.39999962  48.18000031
C    16.82999992  16.13999939  46.98999786
C    17.84000015  16.36000061  46.05999756
C    19.13999939  15.86999989  46.32999802
C    20.20999908  15.95000076  45.38999939
C    21.42999840  15.36999893  45.65000153
C    21.68000031  14.72000027  46.88999939
C    20.65000153  14.53999996  47.78999710
C    19.38999939  15.14999962  47.55000305
C    15.39999962  16.28000069  46.77000046
C    14.65999985  15.76000023  47.87000275
C    13.27999973  15.71000004  47.81999969
C    23.11000061  14.39000034  47.25000000
H    23.29540634  14.58966923  48.30539322
H    18.45000076  14.07999992  49.23999786
H    17.61000061  16.80999947  45.10000229
H    20.03000069  16.36999893  44.40000153
H    22.27000046  15.42000008  44.95999908
H    20.79999924  14.01999950  48.74000168
H    12.68000031  15.19000053  48.55999756
H    23.72999954  15.05000019  46.62000275
H    23.32999992  13.35000038  47.01000214
S    16.31000137  12.79000092  52.54000092
C    18.96999931  12.17000008  51.93000031
C    17.64000130  12.09000015  51.58000183
C    17.14999962  11.65999985  50.31000137
C    18.06999969  11.18999958  49.38999939
C    19.44000053  11.28999901  49.72999954
C    20.31999969  10.73999977  48.74000168
C    21.63999939  10.57999992  49.08000183
C    22.19000053  11.21000099  50.22999573
C    21.35999870  11.72000027  51.18999863
C    19.95000076  11.75000000  51.00000000
C    15.71000004  11.84000015  50.18000031
C    15.07999992  12.38999939  51.31999969
C    13.76999950  12.86999893  51.35000229
C    23.64000130  10.85000038  50.50000000
H    23.91033363  11.10610580  51.52441788
H    19.15999985  12.53999901  52.94000244
H    17.84000015  10.71000004  48.44999695
H    19.95000076  10.14999962  47.90999985
H    22.18000031   9.96000004  48.37999725
H    21.77999878  12.10999966  52.11999893
H    13.45000076  13.43999958  52.21000290
H    23.71999931   9.80000019  50.20999908
H    24.36000061  11.31999969  49.80999756
S    12.39999962  11.77999973  47.81999969
C     9.76000023  12.43000031  48.40999985
C    11.07999992  12.50000000  48.77999878
C    11.52999973  13.01000023  50.04000092
C    10.59000015  13.53000069  50.90999985
C     9.22000027  13.30000019  50.61999893
C     8.19000053  13.67000008  51.52999878
C     6.84000015  13.67000008  51.31999969
C     6.44000006  13.12000084  50.06000137
C     7.36000013  12.72999954  49.12000275
C     8.76000023  12.79000092  49.36000061
C    12.94000053  12.71999931  50.22999573
C    13.53999996  11.98999977  49.16999817
C    14.88999939  11.67000008  49.05000305
C     4.98000002  13.38999939  49.75999832
H     4.63190222  13.00638103  48.80095291
H     9.35999966  12.05000019  47.47000122
H    10.90999985  13.83999920  51.90000153
H     8.60999966  14.11999893  52.43000031
H     6.11000013  14.19999981  51.91999817
H     7.07000017  12.20999908  48.20999908
H    15.34000015  11.44999981  48.09000015
H     4.90000010  14.47999954  49.81999969
H     4.38000011  13.02000046  50.59999847
