96

S    12.23999977  16.82999992  44.15000153
C     9.53999996  17.27000046  44.86000061
C    10.80999947  16.87999916  45.20000076
C    11.14999962  16.46000099  46.52000046
C    10.13000011  16.44000053  47.45999908
C     8.85999966  16.95999908  47.14000320
C     7.82999992  16.87999916  48.13000107
C     6.52999973  17.17000008  47.78999710
C     6.21000004  17.79000092  46.56000137
C     7.17999983  17.89999962  45.59999847
C     8.50000000  17.40999985  45.81999969
C    12.58999920  16.34000015  46.66999817
C    13.35000038  16.67000008  45.52000046
C    14.73999977  16.67000008  45.47000122
C     4.76000023  18.04000092  46.20999908
H     4.38903522  17.47641945  45.35392761
H     9.36999989  17.51000023  43.81000137
H    10.21999931  16.00000000  48.44999695
H     8.07999992  16.47999954  49.10999680
H     5.82999992  17.09000015  48.61999893
H     6.94999981  18.34000015  44.62999725
H    15.24000072  16.72999954  44.51000214
H     4.01999998  17.80999947  46.97999954
H     4.72000027  19.11999893  45.97999954
S    15.62999916  15.57000065  49.16999817
C    18.32999992  15.07999992  48.60000229
C    17.09000015  15.50000000  48.16999817
C    16.82999992  16.04999924  46.86999893
C    17.86999893  16.11999893  45.96000290
C    19.11000061  15.55999947  46.31999969
C    20.17999840  15.50000000  45.38000107
C    21.45000076  15.11999989  45.75000000
C    21.70000076  14.75999928  47.09999847
C    20.68000031  14.61999989  48.01000214
C    19.37999916  15.03999901  47.63999939
C    15.43000031  16.39999962  46.65999985
C    14.65999985  16.21999931  47.84000015
C    13.27999973  16.05999947  47.85999680
C    23.11000061  14.50000000  47.56999969
H    23.27969551  14.88888359  48.57402802
H    18.40999985  14.80999947  49.65000153
H    17.64000130  16.46000099  44.94999695
H    20.00000000  16.06999969  44.47999954
H    22.29000092  15.19000053  45.06000137
H    20.78000069  14.37000084  49.06999969
H    12.69999981  15.76000023  48.73000336
H    23.92999840  14.88999939  46.95000076
H    23.26000023  13.42000008  47.60000229
S    15.73999977  13.30000019  52.39999771
C    18.35000038  12.38000011  51.72999954
C    17.00000000  12.46999931  51.45999908
C    16.53000069  12.05999947  50.18000031
C    17.43000031  11.59999943  49.22999954
C    18.81999969  11.56000042  49.45000076
C    19.73999977  11.10999966  48.46000290
C    21.07000160  11.07999992  48.81999969
C    21.57999992  11.42000008  50.10000229
C    20.69000053  11.94000053  51.00000000
C    19.29000092  11.98999977  50.73999786
C    15.11999989  12.35000038  50.00000000
C    14.52999973  12.94999981  51.13999939
C    13.22000027  13.40000057  51.16000366
C    22.96999931  11.02000046  50.56999969
H    23.28475761  11.31329727  51.57150269
H    18.75000000  12.76999950  52.65999603
H    17.06999969  11.31999969  48.23999786
H    19.52000046  10.85999966  47.42000198
H    21.77999878  10.59999943  48.13999939
H    21.00000000  12.03999996  52.04000092
H    12.71999931  13.76999950  52.04999924
H    23.25000000   9.96000004  50.50000000
H    23.61000061  11.54999924  49.85000229
S    11.90000057  12.71000004  47.47000122
C     9.22999954  13.23999977  48.27999878
C    10.57999992  13.21000004  48.54000092
C    11.02000046  13.57999992  49.85000229
C    10.17000008  14.09999943  50.79999924
C     8.78999996  14.19000053  50.50000000
C     7.83999968  14.52999973  51.51000214
C     6.51000023  14.68000031  51.23000336
C     6.00000000  14.37999916  49.93999863
C     6.90000010  13.90999985  49.02000046
C     8.30000019  13.73999977  49.22000122
C    12.43000031  13.25000000  50.00999832
C    13.02999973  12.71999931  48.83999634
C    14.34000015  12.25999928  48.83999634
C     4.53999996  14.52000046  49.55999756
H     4.32707310  14.10834217  48.57343674
H     8.88000011  12.84999943  47.32999802
H    10.47000027  14.40999985  51.79999924
H     8.19000053  14.67000008  52.52999878
H     5.89999962  14.96000099  52.09000015
H     6.61999989  13.53999996  48.02999878
H    14.72000027  11.80999947  47.93000031
H     4.32999992  15.59000015  49.45000076
H     3.93000007  14.02999973  50.31999969
