96

S    12.27000046  16.77000046  43.95999908
C     9.61000061  17.34000015  44.71000290
C    10.86999989  16.88999939  45.04000092
C    11.19999981  16.39000130  46.32999802
C    10.19999981  16.20000076  47.28000259
C     8.90999985  16.69000053  46.95999908
C     7.95000029  16.57999992  48.00000000
C     6.65000010  16.95000076  47.72999573
C     6.28999996  17.50000000  46.46999741
C     7.23000002  17.68000031  45.48999786
C     8.57999992  17.25000000  45.68000031
C    12.64000034  16.28000069  46.50000000
C    13.38000107  16.40999985  45.30000305
C    14.77000046  16.34000015  45.26000214
C     4.88000011  17.89999962  46.10000229
H     4.51818609  17.46014786  45.17063522
H     9.34000015  17.69000053  43.70999908
H    10.24000072  15.62999916  48.20000076
H     8.26000023  16.13999939  48.94000244
H     5.92999983  16.79000092  48.52000427
H     7.04999971  18.04999924  44.47999954
H    15.39000034  16.35000038  44.36999893
H     4.13999987  17.50000000  46.81999969
H     4.61999989  18.96000099  46.18000031
S    15.71000004  15.52999973  49.09000015
C    18.34000015  14.86999989  48.26000214
C    17.11000061  15.44999981  48.01000214
C    16.86000061  15.85000038  46.65999985
C    17.85000038  15.75000000  45.70000076
C    19.17000008  15.34000015  46.02000427
C    20.27000046  15.48999977  45.13000107
C    21.54999924  15.14000034  45.50000000
C    21.78999901  14.61999989  46.79999924
C    20.72000122  14.34000015  47.62000275
C    19.43000031  14.88000011  47.36000061
C    15.43000031  16.09000015  46.46999741
C    14.72000027  15.97000027  47.68000031
C    13.32999992  16.06999969  47.70000076
C    23.19000053  14.27999973  47.23999786
H    23.43910789  14.79956532  48.16525269
H    18.44000053  14.30999947  49.19000244
H    17.61999893  15.88000107  44.65000153
H    20.17999840  15.95999908  44.15999985
H    22.34999847  15.25000000  44.77000427
H    20.72999954  13.85000038  48.59000397
H    12.79000092  16.04999924  48.63999939
H    23.92000008  14.56999969  46.46999741
H    23.25000000  13.20000076  47.42000198
S    16.31999969  13.05999947  52.16999817
C    18.89999962  12.48999977  51.37000275
C    17.56000137  12.42000008  51.06999969
C    17.02000046  11.87000084  49.86999893
C    17.86999893  11.28999901  48.95000076
C    19.25000000  11.21999931  49.26000214
C    20.20999908  10.62000084  48.40000153
C    21.53000069  10.47999954  48.75999832
C    22.03000069  11.05000019  49.95999908
C    21.14999962  11.73999977  50.76000214
C    19.76000023  11.79999924  50.47999954
C    15.62999916  12.28000069  49.72000122
C    15.10000038  12.86000061  50.90000153
C    13.78999901  13.27999973  51.06999969
C    23.45999908  10.78999996  50.38000107
H    23.79537392  11.46788597  51.16491699
H    19.17000008  12.84999943  52.36000061
H    17.32999992  10.77999973  48.15000153
H    19.89999962  10.36999893  47.38999939
H    22.26000023   9.98999977  48.11000061
H    21.48999977  12.11999989  51.72000122
H    13.40999985  13.71000099  51.98999786
H    23.55999947   9.76000023  50.75000000
H    24.15999985  10.88999939  49.54000092
S    12.25000000  12.34000015  47.50000000
C     9.59999943  12.84999943  48.31999969
C    10.95000076  12.88000011  48.57999802
C    11.47999954  13.27999973  49.85000229
C    10.52000046  13.66000080  50.77000046
C     9.11999989  13.68000031  50.54000092
C     8.15999985  14.25000000  51.43000031
C     6.80999994  14.27000046  51.13999939
C     6.34000015  13.83999920  49.86999893
C     7.25000000  13.35999966  48.95999908
C     8.63000011  13.20000076  49.27999878
C    12.92000008  13.12000084  49.98000336
C    13.45999908  12.57999992  48.77999878
C    14.73999977  12.05999947  48.66000366
C     4.86999989  14.04000092  49.55999756
H     4.69143677  13.68287468  48.54576111
H     9.30999947  12.50000000  47.32999802
H    10.95999908  14.00000000  51.70000076
H     8.57999992  14.80000019  52.27000427
H     6.15000010  14.68999958  51.88999939
H     6.89000034  13.15000057  47.95000076
H    14.93999958  11.35000038  47.85999680
H     4.69000006  15.11000061  49.65999985
H     4.23999977  13.53000069  50.30000305
