96

S    12.43999958  17.22999954  44.29999924
C     9.78999996  17.53000069  45.11000061
C    11.05000019  17.02000046  45.37000275
C    11.43000031  16.53000069  46.65999985
C    10.42000008  16.28000069  47.56999969
C     9.13000011  16.81999969  47.36999893
C     8.10000038  16.77999878  48.34999847
C     6.81999969  17.25000000  48.15000153
C     6.47000027  17.75000000  46.86999893
C     7.44999981  17.88999939  45.91999817
C     8.78999996  17.45000076  46.11000061
C    12.86000061  16.28000069  46.79999924
C    13.50000000  16.59000015  45.56999969
C    14.88000011  16.48999977  45.45000076
C     5.07999992  18.22999954  46.53999710
H     4.61084414  17.59735107  45.78650665
H     9.55000019  17.87999916  44.10999680
H    10.52999973  15.59999943  48.40999985
H     8.39999962  16.21000099  49.22000122
H     6.10000038  17.28000069  48.96999741
H     7.13999987  18.20999908  44.93000031
H    15.34999943  16.86000061  44.54000092
H     4.53999996  18.13999939  47.49000168
H     5.13000011  19.29999924  46.26999664
S    16.10999870  15.75000000  49.22000122
C    18.78999901  15.59999943  48.40000153
C    17.47999954  15.88999939  48.09000015
C    17.07999992  16.23999977  46.76000214
C    18.02000046  16.42000008  45.76000214
C    19.34000015  15.95999908  46.00000000
C    20.32999992  15.77000046  45.00000000
C    21.56999969  15.22999954  45.28999710
C    21.94000053  14.88000011  46.60999680
C    21.04000092  15.14000034  47.62000275
C    19.71999931  15.57999992  47.32999802
C    15.62999916  16.20000076  46.59999847
C    15.01000023  16.03000069  47.85999680
C    13.61999989  15.98000050  47.94000244
C    23.38000107  14.59000015  46.95000076
H    23.57952881  15.03181267  47.92626572
H    19.10000038  15.15999985  49.34999847
H    17.57999992  16.52000046  44.77000427
H    20.07999802  15.98000050  43.96999741
H    22.34000015  15.21000004  44.52999878
H    21.37000084  15.03999901  48.66000366
H    13.09999943  15.71000004  48.85000229
H    23.97000122  14.96000099  46.10000229
H    23.47999954  13.50000000  46.97999954
S    15.92000008  13.09000015  52.32999802
C    18.63999939  12.97000027  51.55000305
C    17.30999947  12.81999969  51.25000000
C    16.79999924  12.35000038  50.00000000
C    17.70000076  11.90999985  49.05000305
C    19.09000015  11.97999954  49.29999924
C    20.00000000  11.38000011  48.37999725
C    21.31000137  11.18000031  48.75000000
C    21.76000214  11.64000034  50.00999832
C    20.92000008  12.27000046  50.90999985
C    19.55000114  12.48000050  50.58000183
C    15.34999943  12.42000008  49.86999893
C    14.70999908  12.84000015  51.05999756
C    13.35999966  13.15999985  51.04000092
C    23.18000031  11.23000050  50.33000183
H    23.46426392  11.44319820  51.36045837
H    19.11999893  13.17999935  52.50000000
H    17.43000031  11.61000061  48.04000092
H    19.48999977  10.88000107  47.56999969
H    21.96000099  10.52999973  48.16999817
H    21.24000168  12.48000050  51.91999817
H    12.97999954  13.53999996  51.98999786
H    23.45999908  10.19000053  50.14999771
H    23.85999870  11.84000015  49.72000122
S    12.01000023  12.18000031  47.47000122
C     9.34000015  12.50000000  48.22000122
C    10.67000008  12.53999901  48.56999969
C    11.11999989  12.86999893  49.88999939
C    10.18000031  13.22999954  50.84999847
C     8.82999992  13.34000015  50.45000076
C     7.96000004  13.97999954  51.37000275
C     6.61999989  14.11000061  51.11000061
C     6.19999981  13.86999989  49.78000259
C     7.00000000  13.22999954  48.86000061
C     8.36000061  12.94000053  49.15000153
C    12.56999969  12.84999943  49.93000031
C    13.22999954  12.51000023  48.72000122
C    14.60999966  12.36999989  48.68000031
C     4.75000000  14.14999962  49.43999863
H     4.39545965  13.67491627  48.52528763
H     9.02000046  12.46000099  47.18000031
H    10.59999943  13.56999969  51.79999924
H     8.46000004  14.27000046  52.29000092
H     5.84000015  14.42000008  51.81000137
H     6.61999989  13.02999973  47.85999680
H    14.98999977  12.06999969  47.70999908
H     4.71000004  15.22999954  49.27000046
H     4.15999985  13.89000034  50.33000183
