96

S    12.23999977  16.56999969  44.18000031
C     9.59000015  17.32999992  44.93999863
C    10.85000038  16.84000015  45.24000168
C    11.13000011  16.31000137  46.53999710
C    10.13000011  16.31999969  47.50000000
C     8.89000034  16.94000053  47.23999786
C     7.82999992  17.10000038  48.18000031
C     6.56000042  17.46000099  47.81999969
C     6.28000021  17.92000008  46.50000000
C     7.30999994  17.97000122  45.58000183
C     8.56999969  17.40999985  45.91999817
C    12.53000069  16.00000000  46.79000092
C    13.22999954  16.05999947  45.56000137
C    14.60999966  16.00000000  45.48999786
C     4.88000011  18.19000053  46.00999832
H     4.61005831  17.40859032  45.29962540
H     9.39000034  17.86000061  44.01000214
H    10.42000008  16.03000069  48.50999832
H     7.92999983  16.77000046  49.20999908
H     5.72000027  17.28999901  48.48999786
H     7.36999989  18.36000061  44.56999969
H    15.17000008  16.10999870  44.55999756
H     4.09999990  18.27000046  46.77999878
H     4.88999987  19.15999985  45.50000000
S    15.77999973  15.59999943  49.20999908
C    18.45000076  15.03000069  48.50999832
C    17.20000076  15.47000027  48.15000153
C    16.82999992  15.72000027  46.79000092
C    17.82999992  15.72000027  45.83000183
C    19.15999985  15.38000011  46.14999771
C    20.23999977  15.24000072  45.22999573
C    21.54000092  14.94999981  45.56999969
C    21.77999878  14.60000038  46.93000031
C    20.76999855  14.60000038  47.87000275
C    19.44000053  14.96999931  47.50000000
C    15.39000034  15.86999989  46.65000153
C    14.65000057  15.78999996  47.85999680
C    13.27000046  15.88000107  47.97999954
C    23.13999939  14.09000015  47.32999802
H    23.46057510  14.55305195  48.26322556
H    18.71000099  14.81999969  49.54999924
H    17.61000061  15.93000031  44.79000092
H    19.95000076  15.62999916  44.26000214
H    22.36999893  15.10000038  44.88999939
H    21.01000023  14.15999985  48.82999802
H    12.79999924  15.90000057  48.95999908
H    23.85999870  14.35999966  46.55000305
H    23.06999969  13.01000023  47.56000137
S    12.00000000  17.43000031  50.91999817
C     9.35000038  17.90999985  51.60999680
C    10.57999992  17.43000031  51.97999954
C    10.95999908  17.09000015  53.31999969
C     9.96999931  17.09000015  54.29000092
C     8.64000034  17.40999985  53.93000031
C     7.57000017  17.43999863  54.86999893
C     6.25999975  17.69000053  54.50000000
C     5.96000004  18.15000153  53.18999863
C     7.03000021  18.36000061  52.35000229
C     8.34000015  17.87999916  52.61000061
C    12.36999989  16.79000092  53.53000259
C    13.02999973  16.97999954  52.29000092
C    14.42000008  16.97999954  52.30999756
C     4.53000021  18.40999985  52.81000137
H     4.14712143  17.74350739  52.03715515
H     9.18000031  18.30999947  50.61000061
H    10.11000061  16.67000008  55.28999710
H     7.73999977  16.97999954  55.84000015
H     5.46000004  17.20999908  55.06000137
H     6.88000011  18.81999969  51.37000275
H    14.88999939  16.80999947  51.35000229
H     3.91999984  18.38000107  53.72000122
H     4.41000032  19.44000053  52.45999908
S    15.65000057  16.47999954  56.07999802
C    18.27999878  15.82999992  55.17000198
C    17.01000023  16.31000137  54.94999695
C    16.61000061  16.56999969  53.60000229
C    17.52000046  16.45000076  52.56999969
C    18.85000038  16.02000046  52.81000137
C    19.88000107  15.95999908  51.81999969
C    21.14000130  15.47999954  52.08000183
C    21.47999954  15.10000038  53.40999985
C    20.55999947  15.19000053  54.43000031
C    19.25000000  15.67999935  54.15000153
C    15.17000008  16.79999924  53.47999954
C    14.51000023  16.61000061  54.72000122
C    13.12000084  16.61000061  54.68999863
C    22.93000031  14.89999962  53.79000092
H    23.19331360  15.23447895  54.79344177
H    18.56999969  15.65999985  56.20999908
H    17.26000023  16.69000053  51.55000305
H    19.55999947  16.35000038  50.86000061
H    21.90999985  15.48999977  51.31000137
H    20.86999893  14.98000050  55.45000076
H    12.68000031  16.69000053  55.68000031
H    23.44000053  15.60999966  53.13000107
H    23.16999817  13.89999962  53.40999985
