96

S    12.10999966  16.57999992  44.16999817
C     9.50000000  17.05999947  45.08999634
C    10.80000019  16.67000008  45.34999847
C    11.14999962  16.23999977  46.66999817
C    10.14999962  16.17000008  47.63000107
C     8.82999992  16.57999992  47.35000229
C     7.85000038  16.69000053  48.37999725
C     6.54999971  17.06999969  48.11999893
C     6.19999981  17.40999985  46.79000092
C     7.11000013  17.43000031  45.76000214
C     8.43999958  17.01000023  46.03000259
C    12.60000038  16.18000031  46.81000137
C    13.20000076  16.21000099  45.52000046
C    14.57999992  16.13000107  45.44000244
C     4.77999973  17.76000023  46.39999771
H     4.41120768  17.12879944  45.59149551
H     9.21000004  17.34000015  44.08000183
H    10.34999943  16.10999870  48.68999863
H     8.11999989  16.31999969  49.36000061
H     5.89999962  17.02999878  48.99000168
H     6.94000006  17.69000053  44.72000122
H    15.05000019  16.34000015  44.47999954
H     4.00000000  17.64000130  47.15999985
H     4.75000000  18.78000069  46.02000427
S    15.80999947  15.52999973  49.23999786
C    18.40999985  15.08999920  48.41999817
C    17.13999939  15.48999977  48.06999969
C    16.79000092  15.84000015  46.72999954
C    17.80999947  15.80999947  45.79000092
C    19.12999916  15.38000011  46.09000397
C    20.06999969  15.21000004  45.04000092
C    21.35999870  14.82999992  45.33000183
C    21.70999908  14.63999939  46.69000244
C    20.81000137  14.73999977  47.72999573
C    19.45999908  15.08999920  47.45999908
C    15.36000061  16.05999947  46.59999847
C    14.75000000  15.97000027  47.88000107
C    13.38000107  16.13999939  47.97000122
C    23.15999985  14.45000076  47.09999847
H    23.42307091  14.86238480  48.07407761
H    18.59000015  14.85000038  49.45999908
H    17.56999969  16.15999985  44.79000092
H    19.71999931  15.52999973  44.06000137
H    22.10000038  14.82999992  44.54000092
H    21.04000092  14.44000053  48.75000000
H    13.04999924  16.18000031  49.00000000
H    23.87000084  14.78000069  46.33999634
H    23.34000015  13.36999989  47.15000153
S    11.89000034  17.06999969  51.14999771
C     9.22000027  17.60000038  51.77999878
C    10.47999954  17.26000023  52.21000290
C    10.81999969  16.77000046  53.50999832
C     9.80000019  16.67000008  54.43999863
C     8.47000027  16.95000076  54.05000305
C     7.40999985  16.92000008  55.00000000
C     6.12999964  17.28000069  54.62999725
C     5.89999962  17.94999886  53.40000153
C     6.89000034  17.98999977  52.44999695
C     8.18000031  17.48999977  52.75000000
C    12.25000000  16.64999962  53.70999908
C    12.98999977  16.79000092  52.50999832
C    14.37999916  16.68000031  52.45999908
C     4.48999977  18.37000084  53.06999969
H     3.99831605  17.66454124  52.40016937
H     9.00000000  17.77000046  50.72999954
H    10.03000069  16.28000069  55.43000031
H     7.64999962  16.48999977  55.97000122
H     5.26999998  17.02000046  55.24000168
H     6.63999987  18.37000084  51.45999908
H    14.85000038  16.97999954  51.52999878
H     3.78999996  18.45000076  53.92000198
H     4.61000013  19.34999847  52.57999802
S    15.32999992  15.73999977  56.16000366
C    17.97999954  15.10000038  55.37000275
C    16.76000023  15.67000008  55.11000061
C    16.45000076  16.34000015  53.88000107
C    17.42000008  16.40999985  52.88999939
C    18.71999931  15.88999939  53.11999893
C    19.82999992  15.95000076  52.22999954
C    21.07000160  15.44000053  52.50999832
C    21.27000046  14.75000000  53.74000168
C    20.27000046  14.72000027  54.66999817
C    18.98999977  15.26999950  54.38999939
C    15.01999950  16.53000069  53.68999863
C    14.27999973  16.38000107  54.88999939
C    12.89000034  16.43000031  54.93999863
C    22.70000076  14.44000053  54.13999939
H    23.09794426  15.05112839  54.95009995
H    18.22000122  14.73999977  56.37000275
H    17.20000076  16.79999924  51.90000153
H    19.72999954  16.40999985  51.25000000
H    21.87999916  15.53999996  51.79000092
H    20.45999908  14.40000057  55.68999863
H    12.32999992  16.06999969  55.79999924
H    23.29999924  14.65000057  53.25000000
H    22.77000046  13.35000038  54.23999786
