96

S    12.11999989  16.82999992  44.61999893
C     9.44000053  17.42000008  45.33000183
C    10.69000053  16.93000031  45.66999817
C    10.95000076  16.35000038  46.95000076
C     9.90999985  16.18000031  47.84000015
C     8.61999989  16.69999886  47.58999634
C     7.55000019  16.64999962  48.53000259
C     6.38000011  17.29999924  48.20999908
C     6.07999992  17.70000076  46.88000107
C     7.09999990  17.70000076  45.94999695
C     8.42000008  17.28999901  46.30000305
C    12.34000015  15.95999908  47.15999985
C    13.07999992  16.20000076  45.97000122
C    14.45000076  15.97000027  45.87999725
C     4.72000027  18.22999954  46.51000214
H     4.32084131  17.74530602  45.61902237
H     9.22999954  17.75000000  44.31999969
H    10.11999989  15.80000019  48.83999634
H     7.67000008  16.23999977  49.52999878
H     5.55000019  17.32999992  48.90999603
H     7.03999996  18.29000092  45.04000092
H    15.08999920  16.18000031  45.02999878
H     4.03999996  18.00000000  47.34000397
H     4.90000010  19.29999924  46.36000061
S    15.44000053  14.88999939  49.59999847
C    18.19000053  14.96999931  49.06000137
C    16.90000153  15.17000008  48.61999893
C    16.56999969  15.55999947  47.29000092
C    17.61000061  15.70000076  46.38999939
C    18.96000099  15.57999992  46.79000092
C    20.02000046  15.67999935  45.84000015
C    21.31999969  15.34999943  46.13999939
C    21.61999893  14.94999981  47.47000122
C    20.59999847  14.80000019  48.37999725
C    19.23999977  15.13000011  48.11999893
C    15.14000034  15.72000027  47.08000183
C    14.40999985  15.36999893  48.23999786
C    13.02000046  15.46000004  48.27000046
C    23.00000000  14.53999996  47.95000076
H    23.26945686  15.02927494  48.88600540
H    18.53000069  14.50000000  49.97000122
H    17.38999939  15.95000076  45.35999680
H    19.69000053  16.00000000  44.85000229
H    22.10000038  15.31999969  45.38999939
H    20.90999985  14.42000008  49.34999847
H    12.46000099  15.26000023  49.18000031
H    23.71999931  14.68999958  47.15000153
H    22.88000107  13.45000076  48.09999847
S    11.64999962  16.82999992  51.30000305
C     9.03999996  17.48999977  52.01000214
C    10.26000023  16.97999954  52.38999939
C    10.62000084  16.63999939  53.74000168
C     9.70000076  16.80999947  54.75999832
C     8.40999985  17.26000023  54.38999939
C     7.37999964  17.20000076  55.37000275
C     6.10000038  17.59000015  55.05000305
C     5.73999977  17.93000031  53.72000122
C     6.71999979  17.94999886  52.75000000
C     8.05999947  17.59000015  53.04000092
C    12.03999996  16.39000130  53.90999603
C    12.71999931  16.46000099  52.67000198
C    14.11000061  16.54000092  52.56999969
C     4.30000019  18.23999977  53.36000061
H     3.93723941  17.67807770  52.49933243
H     8.65999985  17.63000107  51.00000000
H     9.85000038  16.31999969  55.72000122
H     7.67000008  16.67000008  56.26999664
H     5.32000017  17.52000046  55.80999756
H     6.54999971  18.31999969  51.73999786
H    14.55000019  16.88999939  51.63999939
H     3.73000002  17.88999939  54.22999954
H     4.19000006  19.31999969  53.20000076
S    15.24000072  15.90999985  56.32999802
C    17.94000053  15.64000034  55.70999908
C    16.65999985  15.88999939  55.27000046
C    16.28000069  16.15999985  53.90999603
C    17.30999947  16.22999954  53.00000000
C    18.64999962  15.93000031  53.36000061
C    19.63000107  15.77999973  52.34000397
C    20.92000008  15.51000023  52.72999573
C    21.19999886  15.03999901  54.03999710
C    20.22000122  15.00000000  55.00999832
C    18.96000099  15.62000084  54.72999954
C    14.84000015  16.32999992  53.74000168
C    14.14999962  16.21999931  54.97000122
C    12.76000023  16.25000000  55.10000229
C    22.56999969  14.61999989  54.51000214
H    22.91090775  15.32311916  55.26993942
H    18.09000015  15.29000092  56.72999954
H    17.11000061  16.11999893  51.93999863
H    19.32999992  16.01000023  51.32999802
H    21.65999985  15.47999954  51.93000031
H    20.40999985  14.52000046  55.96000290
H    12.18000031  16.31999969  56.00999832
H    23.31999969  14.51000023  53.70999908
H    22.47999954  13.64999962  55.00999832
