96

S    12.31999969  16.36999893  44.47999954
C     9.59999943  16.50000000  45.06999969
C    10.88000107  16.27000046  45.51000214
C    11.16000080  16.02000046  46.88999939
C    10.13000011  16.05999947  47.81000137
C     8.80999947  16.34000015  47.38999939
C     7.67000008  16.32999992  48.25000000
C     6.43000031  16.72000122  47.81999969
C     6.17000008  17.05999947  46.46999741
C     7.21000004  16.92000008  45.58000183
C     8.52999973  16.57999992  45.98999786
C    12.58999920  15.85999966  47.11000061
C    13.30999947  16.23999977  45.94999695
C    14.70000076  16.23999977  45.90000153
C     4.74000025  17.38000107  46.07999802
H     4.38238239  16.82211685  45.21456528
H     9.48000050  16.87999916  44.05000305
H    10.24000072  15.92000008  48.88000107
H     7.94000053  16.27000046  49.29999924
H     5.59000015  16.72000122  48.52000427
H     6.98999977  17.02000046  44.52000046
H    15.26000023  16.51000023  45.01999664
H     4.13999987  17.30999947  47.00000000
H     4.74000025  18.45000076  45.84999847
S    15.71000004  15.54999924  49.68999863
C    18.37000084  15.03999901  49.06999969
C    17.13999939  15.50000000  48.64999771
C    16.81999969  15.84000015  47.29999924
C    17.87999916  15.85999966  46.39999771
C    19.17000008  15.48999977  46.83000183
C    20.20999908  15.43000031  45.86000061
C    21.47000122  15.00000000  46.16000366
C    21.78999901  14.73000050  47.51999664
C    20.84000015  14.89999962  48.50999832
C    19.47000122  15.08999920  48.18000031
C    15.39000034  15.86999989  47.06999969
C    14.65999985  15.65000057  48.26000214
C    13.27000046  15.65999985  48.31999969
C    23.25000000  14.51000023  47.85999680
H    23.51352692  14.96582985  48.81439209
H    18.63000107  14.96999931  50.12000275
H    17.76000023  16.06999969  45.34000015
H    19.96000099  15.93999958  44.93000031
H    22.20000076  14.86999989  45.37000275
H    21.18000031  14.82999992  49.54000092
H    12.68000031  15.55999947  49.22999954
H    23.88000107  14.93000031  47.06999969
H    23.40999985  13.43000031  47.93000031
S    15.98000050  12.88000011  52.95999908
C    18.60999870  12.25999928  52.15000153
C    17.25000000  12.18000031  51.93999863
C    16.69999886  11.72999954  50.68999863
C    17.56000137  11.26000023  49.72000122
C    18.96000099  11.18999958  49.95999908
C    19.93999863  10.71000004  49.05000305
C    21.30000114  10.70000076  49.31000137
C    21.80999947  11.26999950  50.50000000
C    20.89999962  11.72999954  51.42000198
C    19.48999977  11.69999981  51.19999695
C    15.26000023  11.94000053  50.61000061
C    14.70999908  12.56999969  51.76000214
C    13.35999966  12.89000034  51.81000137
C    23.29999924  11.28999901  50.73999786
H    23.64821434  11.47476673  51.75621796
H    18.88000107  12.60000038  53.15000153
H    17.14999962  10.93000031  48.76999664
H    19.68000031  10.26000023  48.09999847
H    22.06000137  10.25000000  48.67000198
H    21.21999931  12.10999966  52.38999939
H    13.00000000  13.45000076  52.67000198
H    23.59999847  10.26000023  50.51000214
H    23.81000137  11.95000076  50.01999664
S    12.05999947  11.72999954  48.20000076
C     9.35999966  12.28000069  48.93000031
C    10.71000004  12.32999992  49.18000031
C    11.17000008  12.84999943  50.43000031
C    10.29999924  13.32999992  51.38999939
C     8.90999985  13.32999992  51.10000229
C     8.06999969  13.96000004  52.05999756
C     6.72999954  14.09999943  51.76000214
C     6.23000050  13.56999969  50.54000092
C     7.02000046  12.82999992  49.68999863
C     8.42000008  12.69999981  49.91000366
C    12.58999920  12.61999989  50.66999817
C    13.20000076  12.06999969  49.51000214
C    14.52000046  11.64000034  49.45999908
C     4.81999969  13.85000038  50.07999802
H     4.54194832  13.26537895  49.20306778
H     9.02000046  11.89000034  47.97000122
H    10.65000057  13.76000023  52.31999969
H     8.59000015  14.52000046  52.83000183
H     6.10000038  14.70999908  52.38999939
H     6.54999971  12.25999928  48.88999939
H    14.93999958  11.21000099  48.55999756
H     4.63999987  14.91000080  49.85000229
H     4.11999989  13.63999939  50.90000153
