96

S    12.56000042  17.38999939  44.15000153
C     9.78999996  17.47999954  44.78000259
C    11.07999992  17.12000084  45.10000229
C    11.39000034  16.61000061  46.39999771
C    10.44000053  16.46999931  47.39999771
C     9.09000015  16.77000046  47.11000061
C     7.99000025  16.56999969  48.00000000
C     6.71999979  16.95000076  47.64999771
C     6.46000004  17.56000137  46.38999939
C     7.50999975  17.79000092  45.54000092
C     8.82000065  17.29999924  45.79999924
C    12.82999992  16.59000015  46.63999939
C    13.60999966  16.95999908  45.51000214
C    15.00000000  16.95000076  45.58000183
C     5.07999992  18.13999939  46.14999771
H     4.55980158  17.44165039  45.49440384
H     9.59999943  17.90999985  43.80000305
H    10.67000008  15.95000076  48.33000183
H     8.21000004  16.36000061  49.05000305
H     5.89999962  16.80999947  48.34000015
H     7.42000008  18.32999992  44.59999847
H    15.62999916  17.19000053  44.72999954
H     4.59999990  18.20000076  47.12999725
H     5.36000013  19.13999939  45.77999878
S    15.82999992  15.26999950  49.13000107
C    18.55999947  15.14000034  48.53000259
C    17.29999924  15.55999947  48.18000031
C    17.06999969  16.21000099  46.91999817
C    18.12999916  16.29999924  46.04000092
C    19.43000031  15.85999966  46.37000275
C    20.50000000  16.05999947  45.45000076
C    21.76000214  15.62999916  45.77000046
C    22.00000000  14.96000099  47.00000000
C    20.97999954  14.77000046  47.90999985
C    19.67000008  15.25000000  47.64999771
C    15.65000057  16.46999931  46.72000122
C    14.88000011  15.98999977  47.81000137
C    13.50000000  16.10999870  47.77000046
C    23.38999939  14.51000023  47.39999771
H    23.75215149  15.08518028  48.25212097
H    18.59000015  14.52000046  49.41999817
H    17.94000053  16.63999939  45.01999664
H    20.30999947  16.50000000  44.47000122
H    22.56000137  15.62999916  45.04000092
H    21.14999962  14.32999992  48.88999939
H    12.97000027  15.71000004  48.62999725
H    24.01000023  14.70999908  46.52000046
H    23.48999977  13.45000076  47.67000198
S    16.10000038  12.76000023  52.35000229
C    18.72999954  12.25000000  51.49000168
C    17.38000107  12.20000076  51.25000000
C    16.90999985  12.02000046  49.91000366
C    17.81999969  11.75000000  48.89999771
C    19.19999886  11.61999893  49.15000153
C    20.17000008  11.25000000  48.15999985
C    21.48999977  11.13999939  48.52000427
C    21.90000153  11.28000069  49.86999893
C    21.02000046  11.68000031  50.84999847
C    19.65999985  11.84999943  50.48999786
C    15.47000027  12.23000050  49.81999969
C    14.89999962  12.69000053  51.04000092
C    13.53999996  12.97000027  51.11000061
C    23.38000107  11.11999989  50.14999771
H    23.62240791  11.14851952  51.21231842
H    19.06999969  12.46999931  52.50000000
H    17.46999931  11.69999981  47.87000275
H    19.86999893  11.13000011  47.12999725
H    22.20000076  10.62999916  47.88000107
H    21.28999901  11.76000023  51.90000153
H    13.04999924  13.47000027  51.93999863
H    23.82999802  10.32999992  49.52999878
H    23.94000053  11.90999985  49.64000320
S    12.10000038  12.39999962  47.50999832
C     9.47000027  13.05999947  48.29999924
C    10.80999947  12.97000027  48.60000229
C    11.31999969  13.22000027  49.92000198
C    10.46000004  13.69999981  50.89000320
C     9.07999992  13.86000061  50.59000015
C     8.13000011  14.34000015  51.53999710
C     6.77999973  14.30999947  51.30000305
C     6.30000019  13.89999962  50.02999878
C     7.16000032  13.30000019  49.13000107
C     8.56000042  13.38000107  49.34000015
C    12.72999954  12.89000034  49.98000336
C    13.32999992  12.39999962  48.79000092
C    14.67000008  12.03999996  48.68999863
C     4.90999985  14.27999973  49.56999969
H     4.66188526  13.74123669  48.65551758
H     9.18000031  12.81999969  47.29000092
H    10.81999969  13.96999931  51.88000107
H     8.51000023  14.70000076  52.50000000
H     6.09000015  14.60999966  52.08000183
H     6.80999994  13.12999916  48.11999893
H    15.18000031  11.68000031  47.80000305
H     4.86999989  15.36999893  49.50000000
H     4.32000017  13.89000034  50.40999985
