96

S    12.34000015  17.07999992  44.52000046
C     9.63000011  17.61000061  45.21999741
C    10.90000057  17.20000076  45.54999924
C    11.18999958  16.70999908  46.86000061
C    10.19000053  16.77000046  47.81999969
C     8.86999989  17.18000031  47.49000168
C     7.76000023  16.97000122  48.34999847
C     6.46000004  17.20999908  48.00000000
C     6.21000004  17.76000023  46.70999908
C     7.23999977  18.02999878  45.84000015
C     8.56999969  17.64999962  46.16000366
C    12.61000061  16.52000046  47.09999847
C    13.36999989  16.75000000  45.93000031
C    14.73999977  16.55999947  45.83000183
C     4.82999992  18.15999985  46.23000336
H     4.52506399  17.59267616  45.35065079
H     9.34000015  17.80999947  44.19000244
H    10.38000011  16.51000023  48.85000229
H     8.00000000  16.46999931  49.29000092
H     5.63000011  17.06999969  48.68000031
H     7.09000015  18.37000084  44.81999969
H    15.26999950  16.77999878  44.91000366
H     4.05999994  18.09000015  47.00000000
H     4.84000015  19.25000000  46.06999969
S    15.80999947  15.88999939  49.58000183
C    18.50000000  15.44000053  48.99000168
C    17.26000023  15.84000015  48.55999756
C    16.87999916  16.06999969  47.19999695
C    17.89999962  16.11999893  46.27999878
C    19.22999954  15.73999977  46.60999680
C    20.29999924  15.67999935  45.66999817
C    21.57999992  15.47000027  46.11999893
C    21.87000084  15.01999950  47.43000031
C    20.79999924  14.89999962  48.29000092
C    19.50000000  15.39999962  47.97999954
C    15.44000053  16.23999977  47.01000214
C    14.70000076  16.05999947  48.20000076
C    13.32999992  16.28000069  48.27999878
C    23.26999855  14.55999947  47.77999878
H    23.68299866  15.07268810  48.64872360
H    18.60999870  15.05000019  50.00000000
H    17.57999992  16.29999924  45.25000000
H    20.06999969  15.88999939  44.62999725
H    22.42000198  15.50000000  45.41999817
H    20.94000053  14.59000015  49.31999969
H    12.76000023  16.34000015  49.20000076
H    23.87000084  14.73000050  46.88000107
H    23.15000153  13.48999977  48.01000214
S    12.18000031  17.59000015  51.33999634
C     9.50000000  17.76000023  52.06999969
C    10.80000019  17.51000023  52.44999695
C    11.10999966  17.07999992  53.77999878
C    10.10000038  16.84999847  54.69999695
C     8.78000069  17.23999977  54.36000061
C     7.75000000  17.13000107  55.33000183
C     6.47000027  17.59000015  55.08999634
C     6.19000006  18.05999947  53.77999878
C     7.14999962  18.20000076  52.81000137
C     8.50000000  17.81999969  53.06999969
C    12.56000042  17.01000023  53.90999603
C    13.27000046  17.28000069  52.70999908
C    14.65000057  17.25000000  52.60000229
C     4.72000027  18.27000046  53.48999786
H     4.36235905  17.69062233  52.63881302
H     9.21000004  18.07999992  51.06999969
H    10.29999924  16.35000038  55.63999939
H     7.97999954  16.82999992  56.35000229
H     5.68000031  17.56999969  55.83000183
H     6.84999990  18.51000023  51.81000137
H    14.98000050  17.47999954  51.59000015
H     4.23000002  18.12000084  54.45999908
H     4.65000010  19.31999969  53.18000031
S    15.76000023  16.05999947  56.25000000
C    18.35000038  15.47999954  55.45999908
C    17.11000061  15.98000050  55.11000061
C    16.79999924  16.45000076  53.80000305
C    17.82999992  16.61000061  52.88999939
C    19.14999962  16.21000099  53.22999954
C    20.25000000  16.29999924  52.34000397
C    21.51000023  15.85000038  52.62000275
C    21.70999908  15.15999985  53.85000229
C    20.66999817  15.00000000  54.72999954
C    19.38999939  15.59000015  54.51000214
C    15.39000034  16.81999969  53.70999908
C    14.70999908  16.59000015  54.93000031
C    13.31999969  16.69999886  55.04000092
C    23.12000084  14.88000011  54.33000183
H    23.48463631  15.44482994  55.18796921
H    18.55999947  15.00000000  56.40999603
H    17.57999992  17.00000000  51.90999985
H    20.05000114  16.98999977  51.51000214
H    22.37999916  16.21999931  52.09000015
H    20.81999969  14.46000004  55.66999817
H    12.84999943  16.57999992  56.00999832
H    23.81999969  15.19000053  53.54999924
H    23.25000000  13.80000019  54.51000214
