96

S    12.35000038  17.17000008  44.15999985
C     9.68000031  17.53000069  45.04000092
C    10.97000027  17.10000038  45.27999878
C    11.36000061  16.53000069  46.52999878
C    10.36999893  16.29999924  47.45999908
C     9.03999996  16.72000122  47.25000000
C     8.00000000  16.54999924  48.20999908
C     6.67999983  16.84999847  47.95000076
C     6.34999990  17.46999931  46.72000122
C     7.31999969  17.72999954  45.77000046
C     8.67000008  17.35999870  46.02000427
C    12.79999924  16.28999901  46.62000275
C    13.48000050  16.69000053  45.45000076
C    14.86999989  16.60000038  45.33000183
C     4.94000006  17.92000008  46.44000244
H     4.56245899  17.53533554  45.49258804
H     9.43000031  17.98999977  44.09000015
H    10.65000057  15.85000038  48.40999985
H     8.23999977  15.93000031  49.06999969
H     5.84999990  16.56999969  48.60000229
H     7.07000017  18.29000092  44.86999893
H    15.31000042  16.77999878  44.34999847
H     4.28999996  17.40999985  47.16999817
H     4.73000002  19.00000000  46.45000076
S    15.92000008  15.25000000  48.88999939
C    18.53999901  14.82999992  48.09000015
C    17.31999969  15.39000034  47.81000137
C    17.04000092  15.88000107  46.49000168
C    18.05999947  16.05999947  45.56999969
C    19.32999992  15.48999977  45.81999969
C    20.46999931  15.57000065  44.98000336
C    21.73000145  15.17000008  45.37000275
C    21.91999817  14.60000038  46.65000153
C    20.82999992  14.34000015  47.44999695
C    19.55000114  14.85000038  47.09000015
C    15.60999966  16.10999870  46.40999603
C    14.85999966  15.75000000  47.56000137
C    13.48000050  15.65999985  47.67000198
C    23.31000137  14.37000084  47.22000122
H    23.56735420  15.06342030  48.02064896
H    18.68000031  14.42000008  49.09000015
H    17.69000053  16.55999947  44.68000031
H    20.28000069  16.18999863  44.10999680
H    22.67999840  15.29000092  44.85000229
H    20.94000053  13.89999962  48.43999863
H    13.04999924  15.34999943  48.61000061
H    24.10000038  14.40999985  46.45999908
H    23.38000107  13.32999992  47.56000137
S    12.05000019  16.94000053  50.50000000
C     9.30999947  17.14999962  51.20999908
C    10.59000015  16.72000122  51.49000168
C    10.97000027  16.21999931  52.77999878
C     9.98999977  16.17000008  53.75000000
C     8.64000034  16.52000046  53.54000092
C     7.64999962  16.47999954  54.55999756
C     6.39999962  16.95000076  54.26000214
C     6.06999969  17.52000046  53.00000000
C     6.98999977  17.43999863  51.97999954
C     8.32999992  17.00000000  52.21000290
C    12.39999962  16.13999939  53.00000000
C    13.12999916  16.47999954  51.84000015
C    14.51000023  16.61000061  51.75000000
C     4.67999983  18.04000092  52.70000076
H     4.23716450  17.36860466  51.96432114
H     8.98999977  17.61000061  50.27999878
H    10.34000015  15.93000031  54.75000000
H     7.92000008  16.10000038  55.54000092
H     5.66999960  16.88999939  55.06000137
H     6.61999989  17.94000053  51.09000397
H    15.07999992  17.00000000  50.90999985
H     4.00999975  18.06999969  53.56999969
H     4.73000002  19.10000038  52.39999771
S    15.55999947  15.40999985  55.38999939
C    18.26000023  15.19999981  54.81999969
C    17.00000000  15.53999996  54.36999893
C    16.65999985  16.00000000  53.04999924
C    17.71999931  16.15999985  52.16999817
C    19.02000046  15.72000027  52.50999832
C    20.13999939  15.60999966  51.63000107
C    21.38999939  15.24000072  52.06999969
C    21.60000038  14.88000011  53.43000031
C    20.55000114  14.81999969  54.31999969
C    19.29000092  15.25000000  53.83999634
C    15.22999954  16.15999985  52.85999680
C    14.50000000  15.88999939  54.05000305
C    13.12000084  15.98000050  54.20000076
C    23.01000214  14.53999996  53.85000229
H    23.17344666  14.83136463  54.88754272
H    18.40999985  14.80999947  55.81999969
H    17.48999977  16.36000061  51.12999725
H    19.96000099  15.72000027  50.56999969
H    22.09000015  15.21999931  51.24000168
H    20.62000084  14.55999947  55.37000275
H    12.63000011  15.73999977  55.13999939
H    23.67000198  15.13000011  53.20000076
H    23.19000053  13.45999908  53.87000275
