96

S    12.13999939  16.84999847  44.56999969
C     9.40999985  17.00000000  45.17000198
C    10.70000076  16.77999878  45.59999847
C    11.02000046  16.48999977  46.95999908
C     9.94999981  16.32999992  47.81999969
C     8.60000038  16.54000092  47.41000366
C     7.51999950  16.46999931  48.34000015
C     6.28000021  16.92000008  47.95999908
C     5.98999977  17.28999901  46.62000275
C     6.98000002  17.22999954  45.65999985
C     8.31999969  16.93000031  46.05999756
C    12.46000099  16.29999924  47.11999893
C    13.22000027  16.63999939  45.97000122
C    14.60000038  16.65999985  45.81999969
C     4.59999990  17.73999977  46.25000000
H     4.22351837  17.28538132  45.33365631
H     9.21000004  17.45000076  44.20000076
H    10.10000038  16.46000099  48.88000107
H     7.62000036  16.20000076  49.38999939
H     5.51000023  16.84999847  48.72000122
H     6.93000031  17.61999893  44.65000153
H    15.08999920  16.95000076  44.89999771
H     3.84999990  17.65999985  47.04999924
H     4.63999987  18.81999969  46.09000397
S    15.65999985  15.44999981  49.45000076
C    18.35000038  15.06999969  48.61000061
C    17.05000114  15.44999981  48.34999847
C    16.76000023  16.02000046  47.06999969
C    17.75000000  16.31999969  46.16000366
C    19.06999969  15.84000015  46.37000275
C    20.13000107  16.03999901  45.44000244
C    21.40000153  15.57999992  45.66999817
C    21.70000076  14.89999962  46.88999939
C    20.69999886  14.75999928  47.81999969
C    19.36000061  15.19000053  47.62000275
C    15.32999992  16.25000000  46.95000076
C    14.60000038  15.88999939  48.11000061
C    13.21000004  15.86999989  48.20999908
C    23.09999847  14.50000000  47.25999832
H    23.42695808  15.04019356  48.14847565
H    18.57999992  14.63999939  49.58000183
H    17.46000099  16.84000015  45.25000000
H    20.00000000  16.72000122  44.59999847
H    22.20000076  15.77000046  44.95999908
H    20.86000061  14.27000046  48.76999664
H    12.71999931  15.54999924  49.13000107
H    23.75000000  14.67000008  46.38999939
H    23.03999901  13.43000031  47.50000000
S    15.95999908  13.10999966  52.77000046
C    18.54999924  12.43000031  52.12999725
C    17.25000000  12.51999950  51.70000076
C    16.82999992  12.23000050  50.37000275
C    17.79999924  11.84999943  49.45999908
C    19.13999939  11.59999943  49.86999893
C    20.13000107  11.14999962  48.95999908
C    21.42000008  11.03000069  49.41999817
C    21.86000061  11.46999931  50.70000076
C    20.89999962  11.90999985  51.58000183
C    19.52999878  11.97000027  51.20999908
C    15.36999893  12.31999969  50.31000137
C    14.78000069  12.89999962  51.45999908
C    13.42000008  13.21000004  51.47999573
C    23.26000023  11.16000080  51.17000198
H    23.57302856  11.39477348  52.18734741
H    18.95000076  12.82999992  53.06000137
H    17.50000000  11.64000034  48.43999863
H    19.81999969  10.84000015  47.97000122
H    22.14999962  10.47999954  48.83999634
H    21.19999886  12.05999947  52.62000275
H    13.03999996  13.86000061  52.25999832
H    23.42000008  10.07999992  51.10000229
H    23.95000076  11.72999954  50.52999878
S    12.01000023  11.95000076  47.94000244
C     9.39000034  12.43999958  48.69999695
C    10.72000027  12.48000050  49.03999710
C    11.17000008  12.98999977  50.30000305
C    10.21999931  13.30000019  51.25000000
C     8.84000015  13.22999954  50.96000290
C     7.82999992  13.82999992  51.77999878
C     6.50000000  13.96999931  51.47999573
C     6.12999964  13.63000011  50.14999771
C     7.07000017  13.14000034  49.27000046
C     8.40999985  12.82999992  49.65000153
C    12.61000061  12.79999924  50.40999985
C    13.19000053  12.25999928  49.23999786
C    14.55999947  12.03999996  49.20999908
C     4.72000027  14.01999950  49.77000427
H     4.38556385  13.55036545  48.84496689
H     9.15000057  12.18999958  47.67000198
H    10.43000031  13.67000008  52.25999832
H     8.11999989  14.21000004  52.75000000
H     5.78999996  14.47999954  52.12999725
H     6.80000019  12.93000031  48.23999786
H    15.06000042  11.68000031  48.30999756
H     4.61999989  15.11000061  49.68000031
H     3.98000002  13.67000008  50.50000000
