96

S    11.92000008  17.53999901  44.05000305
C     9.34000015  18.15999985  44.91000366
C    10.57000065  17.60000038  45.19000244
C    10.85000038  16.95000076  46.44000244
C     9.85999966  16.81999969  47.38999939
C     8.57999992  17.38999939  47.15999985
C     7.55999994  17.29999924  48.15000153
C     6.28999996  17.71999931  47.84000015
C     6.01000023  18.22000122  46.53999710
C     6.98999977  18.42000008  45.59999847
C     8.31999969  17.98999977  45.87999725
C    12.28999996  16.76000023  46.52999878
C    13.01000023  16.97000122  45.33000183
C    14.40000057  16.92000008  45.33000183
C     4.61999989  18.63999939  46.11999893
H     4.23522806  18.06284142  45.27920151
H     9.06999969  18.56999969  43.95000076
H    10.19000053  16.52000046  48.37999725
H     7.64999962  16.80999947  49.10999680
H     5.46000004  17.52000046  48.50999832
H     6.84000015  18.79999924  44.59000015
H    14.98999977  17.32999992  44.52000046
H     3.96000004  18.38999939  46.95999908
H     4.57999992  19.72999954  45.94999695
S    15.44000053  16.14999962  49.06999969
C    18.12999916  15.81999969  48.48999786
C    16.87999916  16.17000008  48.02999878
C    16.54000092  16.50000000  46.68000031
C    17.57999992  16.55999947  45.77999878
C    18.90999985  16.31000137  46.18999863
C    19.96000099  16.13999939  45.24000168
C    21.25999832  15.84000015  45.54999924
C    21.52000046  15.51000023  46.90999985
C    20.48999977  15.38000011  47.81000137
C    19.18000031  15.85999966  47.52999878
C    15.10000038  16.62999916  46.51000214
C    14.34000015  16.38000107  47.69000244
C    12.96000004  16.44000053  47.71999741
C    22.88000107  15.00000000  47.30999756
H    23.30160713  15.53594112  48.16035843
H    18.09999847  15.25000000  49.40999985
H    17.38000107  16.67000008  44.72000122
H    19.64999962  16.28000069  44.20000076
H    21.98999786  15.64000034  44.77000427
H    20.69999886  15.06999969  48.82999802
H    12.38000011  16.32999992  48.63999939
H    23.54000092  14.93999958  46.43000031
H    22.90999985  13.96999931  47.67000198
S    12.10000038  17.48999977  51.10000229
C     9.44000053  17.78000069  51.84999847
C    10.69000053  17.30999947  52.16999817
C    11.03999996  17.00000000  53.52000427
C    10.03999901  16.95000076  54.47000122
C     8.71000004  17.26000023  54.10999680
C     7.62000036  17.25000000  55.04000092
C     6.34000015  17.60000038  54.68000031
C     6.10000038  18.25000000  53.44999695
C     7.07000017  18.15999985  52.47000122
C     8.36999989  17.70000076  52.77999878
C    12.48000050  16.90000153  53.70999908
C    13.15000057  17.20999908  52.50000000
C    14.53999996  17.28999901  52.41000366
C     4.80999994  18.90999985  53.02999878
H     4.40465641  18.35531807  52.18375778
H     9.26999950  18.12000084  50.83000183
H    10.32999992  16.80999947  55.51000214
H     7.86999989  16.87999916  56.03000259
H     5.60999966  17.73999977  55.47000122
H     6.88000011  18.60999870  51.50000000
H    15.05000019  17.46000099  51.46999741
H     4.13999987  18.90999985  53.89999771
H     4.84000015  19.96999931  52.77000046
S    15.78999996  16.18999863  56.00999832
C    18.37000084  15.71000004  55.21999741
C    17.13000107  16.14999962  54.85000229
C    16.72000122  16.56999969  53.54000092
C    17.67000008  16.60000038  52.54000092
C    18.97999954  16.20000076  52.90000153
C    20.06000137  16.31999969  51.97000122
C    21.37000084  16.04999924  52.27000427
C    21.71999931  15.55999947  53.55999756
C    20.69999886  15.34000015  54.45999908
C    19.37000084  15.76000023  54.20999908
C    15.29999924  16.90000153  53.52000427
C    14.63999939  16.69000053  54.75000000
C    13.26000023  16.65999985  54.85000229
C    23.12000084  15.11999989  53.92000198
H    23.44022751  15.53985119  54.87356186
H    18.54999924  15.34999943  56.23000336
H    17.28999901  16.77000046  51.52999878
H    19.79999924  16.63999939  50.97000122
H    22.14999962  16.18000031  51.52999878
H    20.96999931  14.80999947  55.37000275
H    12.75000000  16.59000015  55.80999756
H    23.88999939  15.53999996  53.25000000
H    23.19999886  14.04000092  53.80000305
