96

S    12.38999939  16.73999977  44.56999969
C     9.70000076  17.14999962  45.25000000
C    10.93999958  16.67000008  45.59000015
C    11.25000000  16.23999977  46.91999817
C    10.19000053  16.13000107  47.80000305
C     8.89000034  16.61000061  47.50999832
C     7.83999968  16.67000008  48.46000290
C     6.58999968  17.15999985  48.15000153
C     6.30999994  17.57999992  46.81999969
C     7.36999989  17.72999954  45.96000290
C     8.67000008  17.22999954  46.23000336
C    12.68000031  16.28999901  47.15999985
C    13.43000031  16.43000031  45.97000122
C    14.81999969  16.39000130  45.91999817
C     4.88000011  17.93000031  46.45999908
H     4.60312462  17.47563934  45.50868607
H     9.59999943  17.52000046  44.22999954
H    10.27999973  15.88000107  48.86000061
H     8.03999996  16.50000000  49.52000046
H     5.82999992  17.22999954  48.92000198
H     7.20000029  18.22000122  45.00999832
H    15.34000015  16.54000092  44.98000336
H     4.19999981  17.67000008  47.28000259
H     4.88999987  19.02000046  46.38000107
S    15.82999992  15.44000053  49.65000153
C    18.51000023  15.07999992  48.92000198
C    17.25000000  15.52000046  48.57999802
C    16.90999985  15.97000027  47.27000427
C    17.90999985  15.95999908  46.31000137
C    19.22000122  15.48999977  46.56000137
C    20.28000069  15.47000027  45.61000061
C    21.45000076  14.80999947  45.90999985
C    21.71999931  14.28999996  47.21000290
C    20.71000099  14.32999992  48.13999939
C    19.45999908  14.94999981  47.87000275
C    15.48999977  16.25000000  47.15000153
C    14.77000046  16.03999901  48.34999847
C    13.38000107  16.02000046  48.34000015
C    23.13999939  13.92000008  47.57999802
H    23.48077393  14.61575031  48.34674835
H    18.75000000  14.70000076  49.91000366
H    17.56999969  16.31000137  45.34000015
H    20.09000015  15.93000031  44.65000153
H    22.32000160  14.85000038  45.26000214
H    20.86999893  13.89000034  49.12000275
H    12.79000092  15.67999935  49.19000244
H    23.80000114  13.81999969  46.70999908
H    23.05000114  12.94000053  48.06000137
S    12.01000023  17.39999962  51.00000000
C     9.34000015  17.92000008  51.70000076
C    10.54999924  17.34000015  52.01000214
C    10.85000038  16.84000015  53.31999969
C     9.77000046  16.76000023  54.19000244
C     8.47999954  17.25000000  53.89999771
C     7.34000015  17.13999939  54.75999832
C     6.10000038  17.54999924  54.34000015
C     5.89999962  18.30999947  53.15999985
C     7.00000000  18.44000053  52.34000397
C     8.27999973  17.90999985  52.63999939
C    12.28000069  16.63999939  53.48999786
C    13.07000065  16.90999985  52.34000397
C    14.46000004  16.90999985  52.32999802
C     4.53999996  18.78999901  52.69000244
H     4.07718515  18.09933662  51.98509979
H     9.25000000  18.39999962  50.72999954
H     9.81999969  16.11999893  55.06000137
H     7.55000019  16.62999916  55.68999863
H     5.25000000  17.51000023  55.01999664
H     6.77999973  18.81000137  51.33999634
H    14.91000080  17.13000107  51.38000107
H     3.88999987  18.53999901  53.54999924
H     4.53000021  19.85000038  52.44999695
S    15.47000027  15.65999985  55.90999985
C    18.15999985  15.39999962  55.30000305
C    16.94000053  15.95000076  54.95999908
C    16.62999916  16.36000061  53.62999725
C    17.65999985  16.27000046  52.70999908
C    18.97999954  15.90000057  53.04999924
C    20.09000015  15.86999989  52.15000153
C    21.25999832  15.25000000  52.50000000
C    21.50000000  14.81999969  53.82999802
C    20.48999977  14.89999962  54.75999832
C    19.25000000  15.47999954  54.40000153
C    15.19000053  16.54000092  53.47000122
C    14.40999985  16.21000099  54.59999847
C    13.02000046  16.28000069  54.62999725
C    22.88999939  14.44000053  54.29999924
H    23.13936043  14.90310097  55.25469971
H    18.20999908  14.85999966  56.25000000
H    17.48999977  16.35000038  51.63999939
H    19.97999954  16.31999969  51.17000198
H    22.09000015  15.26000023  51.79999924
H    20.59999847  14.37999916  55.72000122
H    12.51999950  16.01000023  55.54999924
H    23.64000130  14.77000046  53.56999969
H    22.86000061  13.35000038  54.34999847
