96

S    12.17000008  16.90000153  44.50000000
C     9.47000027  17.07999992  45.21999741
C    10.76000023  16.80999947  45.58000183
C    11.13999939  16.51000023  46.93000031
C    10.14000034  16.38000107  47.88000107
C     8.80999947  16.73999977  47.56000137
C     7.78999996  16.75000000  48.55999756
C     6.48999977  17.02000046  48.22000122
C     6.15999985  17.38999939  46.88999939
C     7.16000032  17.67000008  45.97999954
C     8.47999954  17.19000053  46.23000336
C    12.57999992  16.35000038  47.04000092
C    13.30000019  16.61999893  45.84000015
C    14.68000031  16.51000023  45.77999878
C     4.74000025  17.79999924  46.58000183
H     4.34012222  17.23588562  45.73740005
H     9.22999954  17.48999977  44.23999786
H    10.32999992  16.15999985  48.92000198
H     8.17000008  16.52000046  49.54999924
H     5.72000027  17.11000061  48.97999573
H     6.86999989  18.11000061  45.02999878
H    15.29000092  16.68000031  44.88999939
H     4.03999996  17.69000053  47.42000198
H     4.72000027  18.86000061  46.31999969
S    15.75000000  15.34000015  49.38999939
C    18.40999985  14.98000050  48.56999969
C    17.11000061  15.29000092  48.25000000
C    16.82999992  15.70000076  46.90999985
C    17.81999969  15.95000076  45.97000122
C    19.15999985  15.60999966  46.25000000
C    20.20000076  15.51000023  45.27999878
C    21.45999908  15.06999969  45.61999893
C    21.70999908  14.47999954  46.88999939
C    20.65999985  14.44000053  47.77000046
C    19.40999985  15.07999992  47.56000137
C    15.40999985  15.98000050  46.84999847
C    14.68999958  15.82999992  48.06999969
C    13.30000019  15.92000008  48.15999985
C    23.12000084  14.09999943  47.30999756
H    23.38984489  14.66099072  48.20474625
H    18.65999985  14.39000034  49.45000076
H    17.63000107  16.39000130  44.99000168
H    20.03000069  15.88000107  44.27000046
H    22.29999924  15.26999950  44.97000122
H    20.81000137  14.06999969  48.77999878
H    12.75000000  15.78999996  49.09000015
H    23.75999832  14.44000053  46.49000168
H    23.05999947  13.02000046  47.43000031
S    15.90999985  13.23999977  52.18999863
C    18.53999901  12.64999962  51.42000198
C    17.19000053  12.48999977  51.20999908
C    16.70999908  12.02999973  49.93999863
C    17.57999992  11.56000042  48.96999741
C    18.96000099  11.51000023  49.27000046
C    19.93000031  11.00000000  48.36000061
C    21.27000046  10.95000076  48.66000366
C    21.75000000  11.46999931  49.88999939
C    20.85000038  12.05000019  50.76000214
C    19.45000076  12.06999969  50.50000000
C    15.27999973  12.23999977  49.79999924
C    14.70999908  12.86000061  50.93999863
C    13.38999939  13.26000023  51.07999802
C    23.19999886  11.26999950  50.27999878
H    23.42060471  11.56888390  51.30474472
H    18.89999962  13.22000027  52.28000259
H    17.18000031  11.18999958  48.02999878
H    19.60000038  10.60999966  47.39999771
H    22.03000069  10.62999916  47.95999908
H    21.18999863  12.46999931  51.70000076
H    12.97000027  13.63999939  52.01000214
H    23.51000023  10.22999954  50.13000107
H    23.85000038  11.76000023  49.54000092
S    11.82999992  12.01000023  47.62000275
C     9.23999977  12.65999985  48.50000000
C    10.59999943  12.63000011  48.74000168
C    11.13999939  13.14000034  49.95999908
C    10.26000023  13.61999989  50.91999817
C     8.85999966  13.67000008  50.72000122
C     7.99000025  14.37999916  51.59999847
C     6.65999985  14.50000000  51.27999878
C     6.15999985  13.94999981  50.06999969
C     7.00000000  13.40000057  49.13000107
C     8.34999943  13.15000057  49.47999954
C    12.60000038  13.07999992  49.93999863
C    13.09999943  12.41000080  48.79000092
C    14.42999935  12.02999973  48.69999695
C     4.71000004  14.22999954  49.72999954
H     4.41726398  13.88728428  48.73755264
H     8.85999966  12.32999992  47.52999878
H    10.71000004  13.97999954  51.84000015
H     8.32999992  14.82999992  52.52999878
H     5.98999977  15.11000061  51.88000107
H     6.63999987  13.09999943  48.15000153
H    14.73999977  11.43000031  47.84999847
H     4.51000023  15.31000042  49.79000092
H     4.09999990  13.76000023  50.51000214
