96

S    12.82999992  16.64999962  44.62999725
C    10.17000008  17.14999962  45.27999878
C    11.38000011  16.63999939  45.65999985
C    11.61000061  16.05999947  46.95000076
C    10.47999954  15.90000057  47.72999573
C     9.21000004  16.46999931  47.43999863
C     8.10999966  16.55999947  48.34000015
C     6.81999969  16.88999939  48.00000000
C     6.63000011  17.23999977  46.63999939
C     7.72000027  17.45000076  45.81999969
C     9.02999973  16.98999977  46.11000061
C    13.03999996  15.93999958  47.21000290
C    13.81000042  16.20000076  46.04999924
C    15.19999981  16.17000008  46.06999969
C     5.27999973  17.73999977  46.19999695
H     4.74048185  17.01591110  45.58949280
H    10.08999920  17.72999954  44.36000061
H    10.50000000  15.42000008  48.69999695
H     8.19000053  16.06999969  49.31000137
H     6.01000023  16.75000000  48.70999908
H     7.63999987  18.02000046  44.88999939
H    15.77000046  16.47999954  45.19000244
H     4.75000000  17.93000031  47.14000320
H     5.44000053  18.68000031  45.65000153
S    16.18999863  15.06000042  49.69999695
C    18.94000053  15.13000011  49.10999680
C    17.63000107  15.19999981  48.68000031
C    17.30999947  15.57999992  47.34000397
C    18.27999878  15.71000004  46.36000061
C    19.62000084  15.53999996  46.77000046
C    20.63999939  15.52000046  45.77000046
C    21.94000053  15.25000000  46.12999725
C    22.29000092  15.03999901  47.49000168
C    21.31999969  14.98000050  48.46000290
C    19.96000099  15.21999931  48.13000107
C    15.86999989  15.75000000  47.22000122
C    15.08999920  15.52999973  48.39000320
C    13.69999981  15.55999947  48.37999725
C    23.68000031  14.53999996  47.81000137
H    24.09165955  15.14329147  48.61912155
H    19.14999962  14.86999989  50.13999939
H    17.97000122  16.00000000  45.34999847
H    20.36999893  15.57999992  44.72000122
H    22.65000153  14.93999958  45.37000275
H    21.54000092  14.52999973  49.41999817
H    13.09000015  15.34999943  49.26000214
H    24.44000053  14.84000015  47.08000183
H    23.68000031  13.45999908  48.02999878
S    15.90999985  12.44999981  52.70000076
C    18.55999947  11.84999943  51.95000076
C    17.22999954  12.00000000  51.60999680
C    16.77999878  11.64999962  50.30000305
C    17.71000099  11.31999969  49.33000183
C    19.09000015  11.28999901  49.65000153
C    20.07999802  11.00000000  48.67000198
C    21.42000008  10.98999977  48.96999741
C    21.87000084  11.28000069  50.27999878
C    20.95000076  11.56000042  51.26999664
C    19.55999947  11.54999924  50.97999954
C    15.32999992  11.80999947  50.20999908
C    14.72000027  12.28000069  51.38999939
C    13.40999985  12.75000000  51.45999908
C    23.35000038  11.26000023  50.56999969
H    23.59149551  11.52280426  51.59991074
H    18.96000099  12.13999939  52.90999985
H    17.35000038  11.18000031  48.30999756
H    19.70000076  10.60999966  47.72999573
H    22.09000015  10.40999985  48.34000015
H    21.22999954  11.79999924  52.29000092
H    13.00000000  13.17999935  52.36999893
H    23.75999832  10.26000023  50.38999939
H    23.75999832  11.97000027  49.84000397
S    11.98999977  12.05999947  47.81999969
C     9.32999992  12.30999947  48.74000168
C    10.67999935  12.46000099  48.94000244
C    11.18000031  12.88000011  50.21999741
C    10.26000023  13.21000004  51.19999695
C     8.86999989  13.21000004  50.97999954
C     7.92000008  13.55000019  51.98999786
C     6.58999968  13.64999962  51.65999985
C     6.10000038  13.32999992  50.37000275
C     6.98999977  12.79000092  49.45999908
C     8.38999939  12.76000023  49.69999695
C    12.60000038  12.58999920  50.33000183
C    13.20000076  12.17000008  49.12000275
C    14.51000023  11.69999981  49.08000183
C     4.63000011  13.48000050  50.05000305
H     4.42384338  13.38758564  48.98367310
H     9.00000000  11.87999916  47.80000305
H    10.57000065  13.27999973  52.23999786
H     8.34999943  13.97999954  52.90000153
H     5.77000046  14.00000000  52.29000092
H     6.57999992  12.50000000  48.50000000
H    15.03999901  11.39999962  48.18000031
H     4.44000006  14.48999977  50.44000244
H     4.02999973  12.76999950  50.61999893
