96

S    12.50000000  17.10000038  44.54000092
C     9.89000034  17.59000015  45.24000168
C    11.10999966  17.10000038  45.63999939
C    11.43000031  16.87000084  47.01000214
C    10.38000011  16.93000031  47.90000153
C     9.03999996  17.14999962  47.50000000
C     7.92000008  16.97000122  48.36999893
C     6.63999987  17.13000107  47.90000153
C     6.39999962  17.64000130  46.59999847
C     7.46000004  17.86999893  45.76000214
C     8.80000019  17.54999924  46.13999939
C    12.86000061  16.61000061  47.14000320
C    13.55999947  16.76000023  45.91999817
C    14.94999981  16.79000092  45.86000061
C     5.00999975  17.82999992  46.04999924
H     4.74652338  17.16062737  45.23108673
H     9.80000019  18.02000046  44.23999786
H    10.53999996  16.72999954  48.95999908
H     8.06999969  16.60000038  49.38999939
H     5.84999990  16.79000092  48.56999969
H     7.32999992  18.20000076  44.73999786
H    15.46000004  16.76000023  44.89999771
H     4.32000017  17.64999962  46.88000107
H     4.76000023  18.86000061  45.75000000
S    16.06999969  15.90999985  49.56999969
C    18.70000076  15.24000072  48.79000092
C    17.43000031  15.62999916  48.46000290
C    17.05999947  16.01000023  47.12999725
C    17.98999977  16.03999901  46.11000061
C    19.32999992  15.71000004  46.39999771
C    20.35000038  15.77999973  45.40999985
C    21.57999992  15.24000072  45.68999863
C    21.86000061  14.85999966  47.02999878
C    20.95000076  14.84000015  48.06999969
C    19.65999985  15.34999943  47.76000214
C    15.65000057  16.38000107  47.00000000
C    14.96000099  16.21999931  48.22999954
C    13.57999992  16.36999893  48.30999756
C    23.31000137  14.63999939  47.39999771
H    23.61568260  15.13051128  48.32415009
H    18.94000053  14.86999989  49.79000092
H    17.61000061  16.34000015  45.13000107
H    20.07999802  16.44000053  44.59000015
H    22.47999954  15.36999893  45.11000061
H    21.15999985  14.56999969  49.09999847
H    12.94000053  16.38000107  49.19000244
H    24.03000069  14.91000080  46.62000275
H    23.35000038  13.53999996  47.42000198
S    11.73999977  17.30999947  51.33999634
C     9.09000015  17.56000137  52.12999725
C    10.36000061  17.13000107  52.44999695
C    10.71000004  16.57999992  53.72000122
C     9.67000008  16.44000053  54.61999893
C     8.34999943  16.79000092  54.29000092
C     7.32999992  16.64999962  55.27999878
C     6.05000019  17.05999947  54.98000336
C     5.71000004  17.59000015  53.70999908
C     6.67000008  17.80999947  52.76000214
C     7.99000025  17.35000038  53.01000214
C    12.15999985  16.48999977  53.85000229
C    12.84000015  16.86000061  52.65999603
C    14.22000027  17.00000000  52.56999969
C     4.25000000  17.80999947  53.37999725
H     3.94492102  17.27788544  52.47895432
H     9.02999973  18.19000053  51.25999832
H     9.85999966  15.85999966  55.52999878
H     7.68000031  16.29999924  56.24000168
H     5.27999973  16.95999908  55.75000000
H     6.52999973  18.12999916  51.72999954
H    14.70999908  17.43999863  51.70999908
H     3.75999975  17.64000130  54.34999847
H     4.13999987  18.89000130  53.22999954
S    15.39999962  15.43000031  56.06999969
C    18.09000015  15.21999931  55.27999878
C    16.79000092  15.60999966  54.99000168
C    16.39999962  16.21000099  53.75999832
C    17.40999985  16.50000000  52.85999680
C    18.72999954  16.01000023  53.02999878
C    19.76000023  16.26000023  52.06999969
C    21.04000092  15.85000038  52.30999756
C    21.35000038  15.07999992  53.47000122
C    20.39999962  14.89999962  54.45000076
C    19.06999969  15.36999893  54.27000046
C    14.96999931  16.46999931  53.62999725
C    14.30999947  15.98999977  54.79000092
C    12.93000031  15.95999908  54.88999939
C    22.80999947  14.80000019  53.75999832
H    23.15910721  15.24172783  54.69332504
H    18.32999992  14.61999989  56.13999939
H    17.19000053  16.98999977  51.91999817
H    19.40999985  16.87999916  51.24000168
H    21.80999947  16.13999939  51.59999847
H    20.72999954  14.55000019  55.43000031
H    12.53000069  15.44999981  55.76000214
H    23.45000076  15.00000000  52.90000153
H    22.80999947  13.71000099  53.86000061
