96

S    12.13999939  17.00000000  44.06000137
C     9.42000008  17.18000031  44.66999817
C    10.67999935  16.79999924  45.05000305
C    10.98000050  16.45000076  46.40999603
C     9.96000004  16.18999863  47.29999924
C     8.63000011  16.52000046  46.93999863
C     7.59000015  16.54999924  47.90999985
C     6.34000015  17.07999992  47.68000031
C     6.06999969  17.51000023  46.35000229
C     7.05999947  17.53999901  45.40000153
C     8.38999939  17.10000038  45.65000153
C    12.42000008  16.31999969  46.59999847
C    13.17000008  16.57999992  45.43000031
C    14.53999996  16.34000015  45.40000153
C     4.67000008  17.87999916  45.90999985
H     4.18690538  17.24061012  45.17115021
H     9.18000031  17.65999985  43.72000122
H    10.14000034  15.93000031  48.34999847
H     7.77999973  16.22999954  48.93000031
H     5.55999994  17.06999969  48.43000031
H     6.83000040  18.09000015  44.48999786
H    15.03000069  16.31999969  44.43000031
H     3.96000004  17.76000023  46.72999954
H     4.61999989  18.89999962  45.50000000
S    15.48999977  15.32999992  49.05000305
C    18.22999954  15.13000011  48.47999954
C    16.97999954  15.59000015  48.13000107
C    16.64999962  16.07999992  46.81999969
C    17.69000053  16.25000000  45.93000031
C    19.02000046  15.86999989  46.25999832
C    20.13999939  16.06999969  45.40999985
C    21.40999985  15.85999966  45.89000320
C    21.63999939  15.15999985  47.11000061
C    20.56999969  14.82999992  47.91999817
C    19.29000092  15.31999969  47.56000137
C    15.21000004  16.13000107  46.62000275
C    14.39000034  15.76000023  47.71999741
C    13.01000023  15.81999969  47.77000046
C    23.02999878  14.68999958  47.45999908
H    23.46283913  15.21508408  48.31148911
H    18.46999931  14.63999939  49.41999817
H    17.60000038  16.51000023  44.87999725
H    20.02000046  16.39999962  44.38000107
H    22.29999924  16.17000008  45.34999847
H    20.76999855  14.34000015  48.87000275
H    12.41000080  15.48999977  48.61999893
H    23.64000130  14.91000080  46.58000183
H    22.98000145  13.60999966  47.64999771
S    12.25999928  17.02000046  51.11000061
C     9.63999939  17.31999969  51.79999924
C    10.88000107  16.88999939  52.21000290
C    11.19999981  16.39999962  53.52000427
C    10.17000008  16.46999931  54.43999863
C     8.85000038  16.82999992  54.08000183
C     7.76999998  16.60000038  54.98000336
C     6.48000002  16.90000153  54.59999847
C     6.19000006  17.47999954  53.33000183
C     7.23000002  17.61999893  52.43999863
C     8.57999992  17.28999901  52.75000000
C    12.63000011  16.14999962  53.64999771
C    13.30000019  16.57999992  52.47000122
C    14.68999958  16.68000031  52.43999863
C     4.74000025  17.68000031  52.97000122
H     4.46903229  17.18797874  52.03587341
H     9.53999996  17.76000023  50.80999756
H    10.31000042  15.88999939  55.35999680
H     7.96999979  16.13000107  55.93000031
H     5.72000027  16.65999985  55.33000183
H     7.00000000  17.89999962  51.42000198
H    15.21000004  17.01000023  51.53999710
H     4.13999987  17.31999969  53.81000137
H     4.40000010  18.71999931  52.85999680
S    15.77999973  15.29999924  56.03000259
C    18.45999908  15.31999969  55.34999847
C    17.15999985  15.55999947  54.95999908
C    16.81999969  15.95999908  53.62999725
C    17.84000015  16.07999992  52.70000076
C    19.18000031  15.72999954  52.97999954
C    20.19000053  15.75000000  51.97000122
C    21.45999908  15.36000061  52.32999802
C    21.76000214  15.06000042  53.68000031
C    20.79000092  15.05000019  54.65999985
C    19.45999908  15.44999981  54.36000061
C    15.39000034  16.22999954  53.55999756
C    14.70000076  15.81999969  54.72999954
C    13.30999947  15.77000046  54.80999756
C    23.16999817  14.68000031  54.06000137
H    23.36966896  15.16491127  55.01556015
H    18.61999893  14.93999958  56.36000061
H    17.65999985  16.39999962  51.66999817
H    20.02000046  15.90000057  50.90000153
H    22.27000046  15.25000000  51.62000275
H    21.07000160  14.55000019  55.59000015
H    12.81000042  15.50000000  55.72999954
H    23.95999908  14.78000069  53.29999924
H    23.15000153  13.60000038  54.26000214
