96

S    12.30999947  17.12000084  44.40000153
C     9.68999958  17.57999992  45.20999908
C    10.90999985  17.02000046  45.48999786
C    11.23000050  16.46000099  46.77000046
C    10.21999931  16.31999969  47.70000076
C     8.89999962  16.69000053  47.36999893
C     7.82999992  16.57999992  48.30999756
C     6.57999992  17.06999969  48.02000046
C     6.32000017  17.64999962  46.75000000
C     7.32999992  17.86999893  45.84999847
C     8.63000011  17.35000038  46.11999893
C    12.67000008  16.26000023  46.88999939
C    13.38999939  16.57999992  45.70999908
C    14.78000069  16.61000061  45.63000107
C     4.90999985  18.09999847  46.40999603
H     4.53046656  17.57008362  45.53635788
H     9.63000011  18.09999847  44.25000000
H    10.42000008  16.03000069  48.73000336
H     8.03999996  16.13999939  49.27999878
H     5.69999981  16.86000061  48.61999893
H     7.25000000  18.43000031  44.93000031
H    15.25000000  16.84000015  44.68000031
H     4.30000019  17.86999893  47.29000092
H     4.84000015  19.19000053  46.31000137
S    15.81999969  15.77999973  49.38999939
C    18.52000046  15.44000053  48.69999695
C    17.22999954  15.72000027  48.31999969
C    16.90000153  16.25000000  47.02999878
C    17.92000008  16.40999985  46.11000061
C    19.22000122  15.93999958  46.38999939
C    20.20999908  15.78999996  45.38000107
C    21.47999954  15.34000015  45.65000153
C    21.77999878  14.96999931  46.97999954
C    20.86000061  15.03999901  48.01000214
C    19.54000092  15.47999954  47.71999741
C    15.46000004  16.36000061  46.83000183
C    14.73999977  16.14999962  48.02999878
C    13.35999966  16.00000000  48.08000183
C    23.18000031  14.52999973  47.35000229
H    23.59985352  15.17045307  48.12565994
H    18.75000000  15.08999920  49.71000290
H    17.71000099  16.52000046  45.05000305
H    20.12000084  16.15999985  44.36000061
H    22.18000031  15.24000072  44.81999969
H    21.05999947  14.81999969  49.05000305
H    12.89000034  15.81999969  49.03999710
H    23.80000114  14.57999992  46.45000076
H    23.16999817  13.45999908  47.60000229
S    15.81999969  12.93000031  52.19999695
C    18.40999985  12.30999947  51.50000000
C    17.10000038  12.39999962  51.09000397
C    16.64999962  12.09000015  49.77000427
C    17.63000107  11.71000004  48.87000275
C    18.98999977  11.59000015  49.20999908
C    20.02000046  11.31000042  48.27000046
C    21.34000015  11.21999931  48.63999939
C    21.75000000  11.46000004  49.98000336
C    20.78000069  11.87999916  50.86000061
C    19.38999939  11.95000076  50.54999924
C    15.22999954  12.41000080  49.61000061
C    14.68000031  12.86000061  50.84000015
C    13.38000107  13.30000019  51.00000000
C    23.22000122  11.28999901  50.30000305
H    23.45497322  11.43952847  51.35382080
H    18.76000023  12.77999973  52.42000198
H    17.34000015  11.59000015  47.83000183
H    19.67000008  10.95000076  47.29999924
H    22.06999969  10.86999989  47.91999817
H    21.04999924  12.06999969  51.88999939
H    12.97999954  13.69999981  51.93000031
H    23.54999924  10.31000042  49.93999863
H    23.68000031  12.05999947  49.66999817
S    11.78999996  12.28000069  47.50999832
C     9.13000011  12.67000008  48.47999954
C    10.50000000  12.76000023  48.62999725
C    11.03000069  13.27000046  49.86000061
C    10.19000053  13.73000050  50.84999847
C     8.78999996  13.71000099  50.65999985
C     7.90999985  14.42000008  51.52000046
C     6.60000038  14.72000027  51.22000122
C     6.06999969  14.09999943  50.06000137
C     6.85999966  13.45999908  49.13000107
C     8.23000050  13.22999954  49.41999817
C    12.46999931  13.09000015  49.94999695
C    13.02000046  12.55000019  48.75999832
C    14.37000084  12.31999969  48.52000427
C     4.56999969  14.11999893  49.86999893
H     4.37856865  13.73004627  48.87030411
H     8.73999977  12.41000080  47.50000000
H    10.57999992  14.13000011  51.77999878
H     8.23999977  14.61999989  52.54000092
H     6.01999998  15.13000011  52.04000092
H     6.44000006  13.00000000  48.23999786
H    14.77000046  11.94000053  47.57999802
H     4.13999987  15.13000011  49.95999908
H     3.98000002  13.53999996  50.59000015
