96

S    12.50000000  16.80999947  44.29999924
C     9.89000034  17.19000053  45.00000000
C    11.10000038  16.63999939  45.37000275
C    11.39000034  16.20000076  46.70000076
C    10.36000061  16.14999962  47.62000275
C     9.06999969  16.61000061  47.25999832
C     8.01999950  16.65999985  48.22000122
C     6.84999990  17.28000069  47.84000015
C     6.57000017  17.73999977  46.52999878
C     7.60999966  17.80999947  45.63000107
C     8.82999992  17.13999939  45.93999863
C    12.82999992  16.02000046  46.76000214
C    13.59000015  16.22999954  45.58000183
C    14.96999931  16.23999977  45.50000000
C     5.19000006  18.19000053  46.11999893
H     4.87123108  17.65163422  45.22744751
H     9.77000046  17.53999901  43.97999573
H    10.59000015  15.95000076  48.66000366
H     8.23999977  16.34000015  49.22999954
H     6.10000038  17.43000031  48.61999893
H     7.46999979  18.37000084  44.71000290
H    15.51000023  16.52000046  44.61000061
H     4.59000015  17.98999977  47.02000046
H     5.22000027  19.27999878  46.09000397
S    16.03999901  15.44000053  49.27000046
C    18.71999931  15.14999962  48.47000122
C    17.39999962  15.39000034  48.13999939
C    17.09000015  15.78999996  46.79999924
C    18.11000061  15.95999908  45.87999725
C    19.37000084  15.36999893  46.14999771
C    20.32999992  15.22999954  45.10000229
C    21.59000015  14.78000069  45.41999817
C    22.01999855  14.55000019  46.75000000
C    21.07000160  14.63999939  47.75000000
C    19.76000023  15.11999989  47.50999832
C    15.64000034  15.90999985  46.69000244
C    14.93999958  15.72999954  47.90999985
C    13.55000019  15.72000027  47.93000031
C    23.45999908  14.28999996  47.14000320
H    23.57373047  14.66673851  48.15648270
H    18.96999931  14.84000015  49.47999954
H    17.85000038  16.39999962  44.92000198
H    20.07999802  15.59999943  44.12000275
H    22.34999847  14.88999939  44.65000153
H    21.35000038  14.27000046  48.73000336
H    12.96000004  15.47999954  48.81000137
H    24.07999992  14.85999966  46.44000244
H    23.75000000  13.22999954  47.15000153
S    11.84999943  17.02000046  51.10000229
C     9.22000027  17.53999901  51.75000000
C    10.40999985  16.97999954  52.14000320
C    10.73999977  16.67000008  53.50000000
C     9.72999954  16.69999886  54.43000031
C     8.48999977  17.31999969  54.12000275
C     7.51999950  17.23999977  55.15999603
C     6.25000000  17.61000061  54.79000092
C     5.97000027  18.02000046  53.46000290
C     6.91999960  18.15000153  52.47000122
C     8.23999977  17.71999931  52.76000214
C    12.18000031  16.55999947  53.69999695
C    12.90999985  16.75000000  52.50000000
C    14.28999996  16.92000008  52.44999695
C     4.56999969  18.40999985  53.02000046
H     4.27088642  17.91859818  52.09417343
H     9.04999924  17.65999985  50.68999863
H     9.81999969  16.15999985  55.37000275
H     7.77999973  16.68000031  56.05999756
H     5.46000004  17.61000061  55.52999878
H     6.71999979  18.50000000  51.45999908
H    14.77000046  17.14999962  51.51000214
H     3.93000007  17.98999977  53.81000137
H     4.46000004  19.50000000  53.06999969
S    15.39000034  15.65999985  56.02000427
C    18.12000084  15.52000046  55.33000183
C    16.84000015  15.92000008  55.01999664
C    16.45000076  16.29999924  53.69999695
C    17.39999962  16.43000031  52.70000076
C    18.75000000  16.10999870  52.97999954
C    19.79999924  16.14999962  52.02000046
C    21.11000061  15.86999989  52.30999756
C    21.42000008  15.46000004  53.62999725
C    20.45000076  15.43000031  54.61000061
C    19.07999992  15.67000008  54.31000137
C    15.00000000  16.46000099  53.55999756
C    14.27000046  16.15999985  54.72999954
C    12.89000034  16.21000099  54.86000061
C    22.84000015  15.05000019  53.94000244
H    23.13921738  15.34921646  54.94451141
H    18.30000114  15.06999969  56.30000305
H    17.05000114  16.77000046  51.72999954
H    19.54000092  16.47999954  51.00999832
H    21.81999969  15.73999977  51.49000168
H    20.61000061  14.93999958  55.56999969
H    12.43999958  15.98999977  55.81999969
H    23.52999878  15.52000046  53.23999786
H    22.93999863  13.96000004  54.03999710
