96

S    12.50000000  17.12000084  44.16999817
C     9.89999962  17.78000069  45.06000137
C    11.16000080  17.28999901  45.31999969
C    11.50000000  16.84000015  46.63000107
C    10.47999954  16.77999878  47.56999969
C     9.13000011  17.12000084  47.34000397
C     8.00000000  16.92000008  48.18999863
C     6.75000000  17.35000038  47.81999969
C     6.51999998  17.95999908  46.56000137
C     7.57999992  18.13999939  45.70000076
C     8.88000011  17.71000099  46.04999924
C    12.89999962  16.44000053  46.72000122
C    13.55999947  16.54000092  45.47000122
C    14.94999981  16.43000031  45.40999985
C     5.09000015  18.25000000  46.16000366
H     4.86811018  17.72748566  45.22949600
H     9.84000015  18.20000076  44.06000137
H    10.64000034  16.21000099  48.47999954
H     8.10999966  16.42000008  49.15000153
H     5.95000029  17.12000084  48.52000427
H     7.40000010  18.48999977  44.68000031
H    15.47000027  16.72999954  44.50000000
H     4.40000010  17.94000053  46.95999908
H     5.05000019  19.34999847  46.07999802
S    15.98000050  15.65000057  49.15000153
C    18.70000076  15.26999950  48.47999954
C    17.39999962  15.50000000  48.09999847
C    17.09000015  15.73999977  46.72000122
C    18.12000084  15.67000008  45.79000092
C    19.45000076  15.34999943  46.13999939
C    20.53999901  15.54999924  45.22999573
C    21.83000183  15.42000008  45.68999863
C    22.10000038  15.07999992  47.04000092
C    21.09000015  14.98999977  47.95999908
C    19.76000023  15.27999973  47.54000092
C    15.67999935  16.05999947  46.53999710
C    14.93999958  15.92000008  47.74000168
C    13.56999969  16.05999947  47.88999939
C    23.54999924  14.84000015  47.43000031
H    23.70653152  15.03922176  48.49014664
H    18.89999962  15.27999973  49.54999924
H    17.81999969  16.05999947  44.81999969
H    20.36999893  15.78999996  44.19000244
H    22.55000114  15.17000008  44.91000366
H    21.22999954  14.78999996  49.02000046
H    12.96000004  16.11999893  48.77999878
H    24.23999977  15.47000027  46.86000061
H    23.78000069  13.82999992  47.08000183
S    16.07999992  13.27000046  52.15000153
C    18.72999954  12.64000034  51.39999771
C    17.38000107  12.65999985  51.11000061
C    16.86000061  12.20000076  49.86000061
C    17.71000099  11.72000027  48.88999939
C    19.11000061  11.87000084  49.05000305
C    20.03999901  11.38000011  48.09000015
C    21.34000015  11.21000099  48.48999786
C    21.90000153  11.75000000  49.66999817
C    21.00000000  12.34000015  50.52999878
C    19.60000038  12.31999969  50.33000183
C    15.44999981  12.51999950  49.65000153
C    14.89999962  13.03999996  50.84999847
C    13.57999992  13.48000050  50.93000031
C    23.31000137  11.46999931  50.14999771
H    23.48101234  11.59825897  51.21883011
H    19.11000061  13.09999943  52.29999924
H    17.38999939  11.10000038  48.04999924
H    19.76000023  10.88999939  47.15999985
H    21.98999786  10.60999966  47.84000015
H    21.25999832  12.71999931  51.52000046
H    13.15000057  13.85000038  51.84999847
H    23.55999947  10.43000031  49.91000366
H    24.06999969  12.01000023  49.55999756
S    12.13000107  12.41000080  47.38999939
C     9.48000050  13.09999943  48.16999817
C    10.82999992  13.02000046  48.43000031
C    11.32999992  13.36999989  49.72999954
C    10.44999981  13.76000023  50.72000122
C     9.04999924  13.73000050  50.51000214
C     8.14000034  14.26000023  51.45999908
C     6.81999969  14.52000046  51.12999725
C     6.30999994  14.17000008  49.86000061
C     7.17000008  13.60999966  48.94000244
C     8.55000019  13.40000057  49.20000076
C    12.77999973  13.28999996  49.79000092
C    13.35999966  12.68000031  48.64999771
C    14.68000031  12.27000046  48.50999832
C     4.86999989  14.42999935  49.45999908
H     4.67799473  13.99621010  48.47864151
H     9.02000046  12.89999962  47.21000290
H    10.78999996  14.06000042  51.70999908
H     8.56000042  14.65999985  52.37999725
H     6.15999985  15.14999962  51.72000122
H     6.74000025  13.52000046  47.95000076
H    15.01000023  11.71000004  47.63999939
H     4.74000025  15.52000046  49.47999954
H     4.17000008  13.97999954  50.18000031
