96

S    12.13999939  16.86000061  44.20000076
C     9.48000050  17.28999901  44.79999924
C    10.71000004  16.88999939  45.25000000
C    11.03999996  16.47999954  46.58000183
C     9.94999981  16.34000015  47.42000198
C     8.64999962  16.75000000  47.04999924
C     7.57999992  16.76000023  47.98999786
C     6.37000036  17.23999977  47.56999969
C     6.11000013  17.70000076  46.25000000
C     7.11000013  17.64000130  45.31000137
C     8.42000008  17.30999947  45.73999786
C    12.46000099  16.27000046  46.83000183
C    13.15000057  16.59000015  45.63000107
C    14.52999973  16.46999931  45.52000046
C     4.76000023  18.22000122  45.79999924
H     4.22432327  17.48433876  45.20004272
H     9.48000050  17.64000130  43.76999664
H    10.17000008  16.05999947  48.44999695
H     7.69999981  16.39000130  49.01000214
H     5.52999973  17.35000038  48.26000214
H     6.85999966  17.85000038  44.27000046
H    15.03999901  16.55999947  44.56999969
H     4.19999981  18.32999992  46.73999786
H     4.78999996  19.19000053  45.30000305
S    15.65000057  15.44999981  49.13999939
C    18.35000038  15.24000072  48.63999939
C    17.13000107  15.65999985  48.18000031
C    16.76000023  16.00000000  46.84000015
C    17.81999969  16.06999969  45.96000290
C    19.12999916  15.77000046  46.43000031
C    20.27000046  15.90000057  45.59000015
C    21.50000000  15.34000015  45.86000061
C    21.70999908  14.73000050  47.12999725
C    20.73999786  14.81999969  48.09999847
C    19.44000053  15.26000023  47.74000168
C    15.32999992  16.13999939  46.63000107
C    14.56999969  15.84000015  47.78999710
C    13.19000053  15.88999939  47.95999908
C    23.05999947  14.11000061  47.43999863
H    23.50770569  14.68562317  48.25013351
H    18.45999908  14.80000019  49.62999725
H    17.64999962  16.39000130  44.93000031
H    20.15999985  16.18000031  44.54000092
H    22.20999908  15.29000092  45.05000305
H    21.07000160  14.60999966  49.10999680
H    12.71999931  15.53999996  48.88000107
H    23.71999931  14.09000015  46.56000137
H    22.86000061  13.09000015  47.77999878
S    11.80999947  17.19000053  51.02000427
C     9.10000038  17.48999977  51.59000015
C    10.34000015  17.06999969  52.00000000
C    10.62999916  16.52000046  53.29000092
C     9.59000015  16.31000137  54.18000031
C     8.30000019  16.79000092  53.83999634
C     7.18999958  16.76000023  54.72999954
C     5.96000004  17.25000000  54.34999847
C     5.69999981  17.68000031  53.02000046
C     6.75000000  17.76000023  52.14000320
C     8.05000019  17.32999992  52.52999878
C    12.05999947  16.44000053  53.52000427
C    12.86000061  16.72999954  52.37999725
C    14.23999977  16.64999962  52.30999756
C     4.32000017  18.15999985  52.61000061
H     3.99938416  17.49026871  51.81202316
H     8.93999958  17.84000015  50.56999969
H     9.78999996  15.90999985  55.17000198
H     7.32999992  16.40999985  55.75000000
H     5.09999990  17.23999977  55.00000000
H     6.61999989  18.20999908  51.16000366
H    14.80999947  16.72000122  51.38000107
H     3.60000014  18.09999847  53.43000031
H     4.42000008  19.23999977  52.42000198
S    15.21000004  15.17000008  55.87999725
C    17.90999985  14.96000099  55.10000229
C    16.63999939  15.43000031  54.85000229
C    16.36000061  15.98999977  53.56999969
C    17.35999870  16.36000061  52.69000244
C    18.64999962  15.81999969  52.95000076
C    19.76000023  16.01000023  52.08000183
C    21.01000023  15.47999954  52.25999832
C    21.30000114  14.80000019  53.47999954
C    20.28000069  14.61999989  54.38000107
C    18.96000099  15.08999920  54.15000153
C    14.93000031  16.22999954  53.44999695
C    14.18000031  15.82999992  54.59000015
C    12.79999924  15.92000008  54.59000015
C    22.72000122  14.45000076  53.88000107
H    23.06017113  14.97443104  54.77294922
H    18.13999939  14.37999916  55.98999786
H    17.22999954  17.05000114  51.86999893
H    19.57999992  16.50000000  51.12999725
H    21.80000114  15.54999924  51.51000214
H    20.43999863  14.11999893  55.33000183
H    12.30999947  15.60999966  55.51000214
H    23.32999992  14.65000057  53.00000000
H    22.72000122  13.38000107  54.12000275
