96

S    12.27000046  16.84999847  44.20999908
C     9.57999992  17.01000023  44.88999939
C    10.85999966  16.64999962  45.26000214
C    11.19999981  16.45000076  46.63000107
C    10.15999985  16.28999901  47.52999878
C     8.80999947  16.54999924  47.18000031
C     7.79999971  16.53000069  48.18000031
C     6.56000042  17.05000114  47.88999939
C     6.25000000  17.43000031  46.55000305
C     7.18999958  17.36999893  45.54999924
C     8.52000046  16.97000122  45.83000183
C    12.61999989  16.26000023  46.83000183
C    13.30000019  16.42000008  45.59000015
C    14.65999985  16.17000008  45.44000244
C     4.85000038  17.92000008  46.25000000
H     4.45012188  17.30590057  45.44310379
H     9.28999996  17.39999962  43.92000198
H    10.32999992  16.10999870  48.59000397
H     8.10999966  16.26000023  49.18000031
H     5.73000002  17.15999985  48.57999802
H     6.94999981  17.59000015  44.51000214
H    15.14000034  16.44000053  44.50000000
H     4.19999981  17.77000046  47.12999725
H     4.80999994  18.96999931  45.96000290
S    15.80999947  15.44000053  49.16999817
C    18.44000053  15.14000034  48.44999695
C    17.17000008  15.50000000  48.04000092
C    16.87000084  15.80999947  46.68000031
C    17.92000008  15.88999939  45.77999878
C    19.20999908  15.44999981  46.17000198
C    20.29000092  15.47999954  45.24000168
C    21.54000092  15.11999989  45.68000031
C    21.83000183  14.75000000  47.02000046
C    20.81000137  14.65999985  47.93000031
C    19.52000046  15.11000061  47.52999878
C    15.42000008  15.85999966  46.56999969
C    14.72000027  15.67999935  47.78999710
C    13.35000038  15.85000038  47.95000076
C    23.26000023  14.40000057  47.37999725
H    23.51704025  14.93550301  48.29392624
H    18.68000031  15.01000023  49.50000000
H    17.64000130  16.05999947  44.73999786
H    20.22999954  15.88000107  44.22999954
H    22.34000015  15.13000011  44.94999695
H    20.92000008  14.18000031  48.89999771
H    12.93000031  15.78999996  48.95000076
H    23.90999985  14.61999989  46.52000046
H    23.21000099  13.30999947  47.50000000
S    11.84000015  16.72999954  51.10000229
C     9.13999939  17.13000107  51.77000046
C    10.44000053  16.90999985  52.16999817
C    10.86999989  16.72999954  53.52000427
C     9.86999989  16.63999939  54.47999954
C     8.50000000  16.79000092  54.13999939
C     7.46999979  16.79999924  55.13000107
C     6.17999983  17.14999962  54.81999969
C     5.82999992  17.35000038  53.46000290
C     6.77999973  17.31999969  52.47000122
C     8.14000034  16.98999977  52.76000214
C    12.30000019  16.50000000  53.61999893
C    13.02999973  16.54000092  52.39999771
C    14.40999985  16.69999886  52.30999756
C     4.39000034  17.63000107  53.09000015
H     4.16968632  17.49496841  52.03107071
H     8.86999989  17.53999901  50.79999924
H    10.07999992  16.59000015  55.54000092
H     7.64999962  16.46000099  56.14999771
H     5.47999954  17.21999931  55.65000153
H     6.58999968  17.71999931  51.47999573
H    15.01999950  16.84999847  51.43000031
H     3.75999975  17.00000000  53.72000122
H     4.25000000  18.64999962  53.46000290
S    15.43000031  15.84000015  56.05999756
C    18.02000046  15.11999989  55.27000046
C    16.81999969  15.71000004  54.97000122
C    16.48999977  16.10999870  53.62999725
C    17.45000076  15.98999977  52.63999939
C    18.77000046  15.60999966  52.97999954
C    19.88999939  15.72000027  52.11000061
C    21.15999985  15.54999924  52.61000061
C    21.45999908  15.17000008  53.94000244
C    20.39999962  14.93999958  54.78000259
C    19.06999969  15.15999985  54.31999969
C    15.07999992  16.45000076  53.50999832
C    14.37000084  16.31999969  54.72000122
C    12.98999977  16.42000008  54.84000397
C    22.86000061  14.70999908  54.27999878
H    23.20085526  15.16447353  55.21025085
H    18.31999969  14.70000076  56.23000336
H    17.20000076  16.18000031  51.59999847
H    19.67000008  16.13000107  51.12999725
H    22.04000092  15.84000015  52.04999924
H    20.45000076  14.60000038  55.80999756
H    12.48999977  16.53000069  55.79000092
H    23.50000000  14.81999969  53.40000153
H    22.88000107  13.61999989  54.38000107
