96

S    12.38999939  17.59000015  44.19000244
C     9.72000027  17.94999886  44.88999939
C    10.93999958  17.39999962  45.20000076
C    11.30000019  16.79999924  46.45000076
C    10.31000042  16.65999985  47.41000366
C     9.06999969  17.30999947  47.19999695
C     8.01999950  17.23999977  48.15999985
C     6.72999954  17.61000061  47.84999847
C     6.47000027  18.22000122  46.59999847
C     7.46999979  18.46999931  45.68999863
C     8.75000000  17.90999985  45.93000031
C    12.74000072  16.75000000  46.66999817
C    13.47000027  17.18000031  45.54000092
C    14.85999966  17.29999924  45.51000214
C     5.00999975  18.52000046  46.37000275
H     4.69794607  18.13702393  45.39838028
H     9.48999977  18.59000015  44.05000305
H    10.44999981  16.06999969  48.30999756
H     8.19000053  16.67000008  49.06999969
H     5.95000029  17.51000023  48.61000061
H     7.21000004  18.71000099  44.65999985
H    15.42000008  17.67000008  44.65000153
H     4.35999966  18.18000031  47.18999863
H     4.94000006  19.61000061  46.26999664
S    15.84000015  16.05999947  49.15000153
C    18.54999924  15.86999989  48.55999756
C    17.28999901  16.23999977  48.13999939
C    16.98999977  16.62999916  46.79999924
C    18.04000092  16.53000069  45.90999985
C    19.34999847  16.13000107  46.26999664
C    20.34000015  15.80000019  45.31000137
C    21.55999947  15.24000072  45.63000107
C    21.80999947  15.01999950  47.01000214
C    20.90999985  15.31999969  48.01000214
C    19.60000038  15.72000027  47.63000107
C    15.57000065  16.90999985  46.65000153
C    14.80999947  16.61000061  47.81000137
C    13.43999958  16.36999893  47.81999969
C    23.19999886  14.60000038  47.41000366
H    23.51291084  15.02669621  48.36295700
H    18.78000069  15.43000031  49.52999878
H    17.95999908  16.61000061  44.82999802
H    20.15999985  15.95000076  44.25000000
H    22.32000160  15.13000011  44.86000061
H    21.19999886  15.31000042  49.06000137
H    12.84999943  16.05999947  48.68000031
H    23.95000076  14.94999981  46.68000031
H    23.38999939  13.52000046  47.43999863
S    12.05999947  17.57999992  50.83000183
C     9.39999962  17.86000061  51.55000305
C    10.65999985  17.43999863  51.90999985
C    10.98999977  17.04000092  53.25000000
C    10.01999950  16.95999908  54.22999954
C     8.67999935  17.25000000  53.87000275
C     7.59000015  17.14999962  54.78000259
C     6.38000011  17.76000023  54.52999878
C     6.10000038  18.32999992  53.26000214
C     7.07999992  18.22999954  52.29999924
C     8.39999962  17.78000069  52.56000137
C    12.43000031  17.04000092  53.44999695
C    13.10999966  17.23999977  52.22000122
C    14.48999977  17.18000031  52.11000061
C     4.69000006  18.72999954  52.88000107
H     4.33990431  18.25129700  51.96546555
H     9.13999939  18.19000053  50.54999924
H    10.34000015  16.54999924  55.18000031
H     7.83999968  16.69000053  55.72999954
H     5.61999989  17.73999977  55.31000137
H     6.89000034  18.45999908  51.25999832
H    15.03999901  17.20000076  51.17000198
H     4.03999996  18.53999901  53.74000168
H     4.82999992  19.80999947  52.70999908
S    15.67000008  16.31999969  55.81999969
C    18.27999878  15.78999996  55.07999802
C    17.05999947  16.29999924  54.71000290
C    16.69999886  16.77000046  53.40999985
C    17.71999931  16.87999916  52.49000168
C    19.00000000  16.34000015  52.74000168
C    20.06000137  16.23999977  51.79000092
C    21.28000069  15.73999977  52.15000153
C    21.61000061  15.52000046  53.52000427
C    20.59000015  15.47999954  54.45000076
C    19.29000092  15.93999958  54.09000015
C    15.26999950  17.02000046  53.26000214
C    14.60000038  16.86000061  54.50000000
C    13.22000027  16.86000061  54.59000015
C    22.96999931  15.01000023  53.90999603
H    23.36158752  15.59382057  54.74301147
H    18.47999954  15.14000034  55.93000031
H    17.35000038  17.20000076  51.52000046
H    19.86999893  16.69999886  50.81999969
H    22.04000092  15.71000004  51.37000275
H    20.72999954  15.14000034  55.47000122
H    12.81000042  16.68000031  55.58000183
H    23.71000099  15.03999901  53.11000061
H    22.79999924  13.97999954  54.25000000
