96

S    12.01000023  17.38999939  44.31000137
C     9.27999973  17.52000046  45.01999664
C    10.57999992  17.22999954  45.34999847
C    10.95000076  16.77999878  46.65999985
C     9.94000053  16.69999886  47.61000061
C     8.60999966  17.05999947  47.29000092
C     7.59999990  17.21999931  48.27999878
C     6.30999994  17.63000107  48.00000000
C     5.93999958  17.94000053  46.66999817
C     6.89000034  17.87999916  45.66999817
C     8.23000050  17.50000000  45.97000122
C    12.38000011  16.62999916  46.86999893
C    13.05999947  16.94000053  45.66999817
C    14.42999935  16.77000046  45.50000000
C     4.53000021  18.37000084  46.33999634
H     4.17358446  17.80686378  45.47747421
H     9.09000015  17.80999947  43.99000168
H    10.05000019  16.26000023  48.60000229
H     7.83999968  17.00000000  49.31000137
H     5.64000034  17.79000092  48.83999634
H     6.72999954  18.20000076  44.65000153
H    14.85999966  17.02000046  44.52999878
H     3.82999992  18.43000031  47.18000031
H     4.69000006  19.42000008  46.04999924
S    15.52000046  15.78999996  49.20999908
C    18.22000122  15.62000084  48.59000397
C    16.95999908  16.04999924  48.20999908
C    16.61999893  16.56999969  46.91999817
C    17.61000061  16.72999954  45.97000122
C    18.89999962  16.23999977  46.30000305
C    19.88999939  16.02000046  45.28999710
C    21.11999893  15.44999981  45.52000046
C    21.53000069  15.21000004  46.86000061
C    20.55000114  15.25000000  47.83000183
C    19.22999954  15.72000027  47.60000229
C    15.19000053  16.54000092  46.65000153
C    14.47999954  16.20000076  47.83000183
C    13.10999966  16.26000023  48.01000214
C    23.01000214  15.03999901  47.11000061
H    23.31578636  15.40267563  48.09135818
H    18.39999962  15.29000092  49.59999847
H    17.36999893  16.77000046  44.91000366
H    19.52000046  16.10000038  44.27999878
H    21.91999817  15.39999962  44.79000092
H    20.65000153  15.01000023  48.88000107
H    12.65999985  15.86999989  48.92000198
H    23.51000023  15.55999947  46.27999878
H    23.15999985  13.96000004  47.18000031
S    11.63000011  17.47999954  50.72999954
C     9.02000046  18.04000092  51.60999680
C    10.26000023  17.50000000  51.86999893
C    10.62000084  17.06999969  53.18000031
C     9.72000027  17.13000107  54.22999954
C     8.42000008  17.61999893  53.95999908
C     7.37999964  17.47999954  54.93000031
C     6.11999989  17.95999908  54.68999863
C     5.77000046  18.37000084  53.37999725
C     6.71000004  18.45000076  52.36999893
C     8.03999996  18.02999878  52.63999939
C    12.05000019  16.81999969  53.29000092
C    12.71999931  17.13000107  52.08000183
C    14.11000061  17.13000107  52.05999756
C     4.34999990  18.64999962  52.95000076
H     4.02247620  17.80982971  52.33767319
H     8.78999996  18.48999977  50.65000153
H     9.77999973  16.53000069  55.13999939
H     7.59999990  16.97000122  55.86999893
H     5.42000008  17.71000099  55.47999954
H     6.48000002  18.82999992  51.38000107
H    14.59000015  17.46000099  51.13999939
H     3.75999975  18.71999931  53.87000275
H     4.25000000  19.63000107  52.47000122
S    15.19000053  16.13000107  55.75000000
C    17.88999939  15.69000053  55.13999939
C    16.61999893  16.02000046  54.71000290
C    16.29999924  16.54000092  53.40999985
C    17.35000038  16.77000046  52.55000305
C    18.65999985  16.39999962  52.94000244
C    19.75000000  16.55999947  52.02999878
C    21.02999878  16.13000107  52.25999832
C    21.25999832  15.43000031  53.47000122
C    20.25000000  15.25000000  54.38999939
C    18.96000099  15.82999992  54.22999954
C    14.88000011  16.69000053  53.15000153
C    14.14999962  16.46999931  54.34999847
C    12.76999950  16.56999969  54.47000122
C    22.65999985  14.88000011  53.64999771
H    23.02951050  15.27793503  54.59509659
H    17.97000122  15.17000008  56.09000397
H    17.15999985  17.18000031  51.56000137
H    19.56999969  17.09000015  51.10000229
H    21.86000061  16.20000076  51.56000137
H    20.50000000  14.75000000  55.31999969
H    12.30999947  16.36999893  55.43000031
H    23.28000069  15.25000000  52.81999969
H    22.63000107  13.78999901  53.63999939
