96

S    12.23999977  17.29999924  44.34999847
C     9.55000019  17.56999969  45.06000137
C    10.80000019  17.11000061  45.37000275
C    11.16000080  16.76000023  46.70999908
C    10.19000053  16.63999939  47.70000076
C     8.85000038  16.88999939  47.32999802
C     7.78999996  16.76000023  48.27000046
C     6.53999996  17.25000000  47.95999908
C     6.19999981  17.73999977  46.66999817
C     7.21000004  17.89999962  45.75000000
C     8.52999973  17.46000099  46.04000092
C    12.60000038  16.69999886  46.91999817
C    13.30000019  16.84999847  45.70000076
C    14.67000008  16.70999908  45.56999969
C     4.76000023  17.87999916  46.23000336
H     4.51747274  17.43061066  45.26702499
H     9.23999977  17.86000061  44.05000305
H    10.31999969  16.13999939  48.64999771
H     8.01999950  16.46999931  49.29999924
H     5.84000015  17.05000114  48.75999832
H     6.96000004  18.15000153  44.72000122
H    15.27999973  16.95999908  44.71000290
H     4.13999987  17.45000076  47.02000046
H     4.48000002  18.94000053  46.23000336
S    15.65999985  15.51000023  49.29000092
C    18.26000023  15.01000023  48.57999802
C    17.06999969  15.57999992  48.20999908
C    16.76000023  15.97000027  46.86999893
C    17.76000023  15.95000076  45.90999985
C    19.06999969  15.59999943  46.31000137
C    20.12000084  15.51000023  45.34999847
C    21.35999870  15.06000042  45.73999786
C    21.61999893  14.52999973  47.02999878
C    20.58000183  14.52000046  47.94000244
C    19.30999947  15.08999920  47.63000107
C    15.34000015  16.21000099  46.70000076
C    14.63999939  16.02000046  47.91999817
C    13.26000023  16.11999893  48.01000214
C    22.88999939  13.81000042  47.41000366
H    23.41585541  14.49219131  48.07798004
H    18.23999977  14.22999954  49.34000015
H    17.61000061  16.21000099  44.86999893
H    19.98999977  15.62000084  44.27999878
H    22.07999992  14.96999931  44.93000031
H    20.59999847  13.99000072  48.88999939
H    12.71999931  15.65999985  48.82999802
H    23.38999939  13.67000008  46.44000244
H    22.70000076  12.84000015  47.88999939
S    16.13999939  12.84999943  52.35000229
C    18.79999924  12.27000046  51.60999680
C    17.46000099  12.28999996  51.31000137
C    16.90000153  11.90000057  50.05000305
C    17.79999924  11.39000034  49.12000275
C    19.18000031  11.21999931  49.38999939
C    20.00999832  10.65999985  48.39000320
C    21.24000168  10.26000023  48.85000229
C    21.80999947  10.78999996  50.04000092
C    21.04000092  11.43000031  50.98999786
C    19.68000031  11.69000053  50.65999985
C    15.47999954  12.17000008  49.89999771
C    14.91000080  12.72999954  51.06999969
C    13.57999992  13.12000084  51.12999725
C    23.29999924  10.67999935  50.27999878
H    23.60614967  11.09294605  51.24116898
H    19.25000000  12.60000038  52.54000092
H    17.45000076  11.10000038  48.13999939
H    19.70999908  10.44000053  47.36999893
H    21.94999886   9.76000023  48.18999863
H    21.45999908  11.75000000  51.93999863
H    13.10999966  13.60000038  51.97999954
H    23.57999992   9.63000011  50.14999771
H    23.75999832  11.35000038  49.52999878
S    12.20999908  12.06999969  47.50000000
C     9.61000061  12.76000023  48.26000214
C    10.95999908  12.86999893  48.47999954
C    11.44000053  13.32999992  49.75000000
C    10.57999992  13.81000042  50.72000122
C     9.19000053  13.82999992  50.43000031
C     8.21000004  14.22999954  51.38000107
C     6.86999989  14.32000065  51.05999756
C     6.40999985  13.81999969  49.80999756
C     7.30000019  13.26000023  48.92000198
C     8.69000053  13.27999973  49.20000076
C    12.79999924  12.89000034  49.99000168
C    13.38000107  12.34000015  48.81000137
C    14.72000027  11.96000004  48.74000168
C     4.97000027  14.04999924  49.43000031
H     4.72133780  13.56688499  48.48508453
H     9.27999973  12.18000031  47.39999771
H    10.93000031  14.04999924  51.72000122
H     8.52000046  14.47000027  52.38999939
H     6.12999964  14.60000038  51.79999924
H     7.14999962  12.79000092  47.95000076
H    15.13000011  11.46000004  47.87000275
H     4.81999969  15.14000034  49.38000107
H     4.32999992  13.64999962  50.21999741
