96

S    12.01000023  16.90000153  44.19000244
C     9.31999969  17.26000023  44.93000031
C    10.60999966  16.90000153  45.27000046
C    10.97000027  16.45000076  46.58000183
C     9.98000050  16.45000076  47.55000305
C     8.67000008  16.87999916  47.27000427
C     7.63000011  16.94000053  48.25000000
C     6.35999966  17.31999969  47.91999817
C     6.01999998  17.75000000  46.60999680
C     6.98999977  17.67000008  45.63000107
C     8.31999969  17.27000046  45.93000031
C    12.42000008  16.40999985  46.75000000
C    13.12000084  16.69999886  45.54999924
C    14.51000023  16.72999954  45.52999878
C     4.56999969  17.85000038  46.20999908
H     4.24977350  17.09568977  45.49127197
H     9.04999924  17.64000130  43.95000076
H    10.14999962  16.20000076  48.60000229
H     7.94000053  16.45000076  49.18000031
H     5.61999989  17.35000038  48.72000122
H     6.76000023  17.94999886  44.59999847
H    15.06000042  16.72999954  44.59000015
H     4.00000000  17.95999908  47.14000320
H     4.30000019  18.78000069  45.68000031
S    15.67000008  15.72999954  49.23999786
C    18.31999969  15.38000011  48.40000153
C    17.02000046  15.72000027  48.09000015
C    16.63999939  16.04999924  46.75000000
C    17.57999992  15.95000076  45.73999786
C    18.93000031  15.67000008  46.04999924
C    19.90999985  15.64000034  45.01999664
C    21.21999931  15.34999943  45.31000137
C    21.57999992  14.93000031  46.62000275
C    20.65000153  14.88999939  47.63999939
C    19.30999947  15.29999924  47.38999939
C    15.22999954  16.40999985  46.69000244
C    14.56999969  16.17000008  47.91999817
C    13.17999935  16.18000031  47.90000153
C    23.05000114  14.72000027  46.93000031
H    23.36415672  15.08413506  47.90816879
H    18.61999893  15.06000042  49.40000153
H    17.26000023  16.21999931  44.73999786
H    19.75000000  16.03999901  44.02000046
H    21.98999786  15.62000084  44.59000015
H    20.89999962  14.68000031  48.68000031
H    12.67000008  15.86999989  48.81000137
H    23.61999893  15.27999973  46.17000198
H    23.22000122  13.63999939  46.91999817
S    11.54000092  16.97999954  51.11000061
C     8.89999962  17.43999863  51.95999908
C    10.17000008  16.97000122  52.22999954
C    10.59999943  16.48999977  53.50999832
C     9.59000015  16.39000130  54.45000076
C     8.28999996  16.88999939  54.23999786
C     7.21000004  16.69000053  55.14999771
C     5.93999958  17.09000015  54.80999756
C     5.69999981  17.90999985  53.68999863
C     6.69000053  18.15999985  52.76000214
C     7.92999983  17.51000023  52.98999786
C    12.02999973  16.28999901  53.67000198
C    12.64999962  16.51000023  52.41000366
C    14.02999973  16.48999977  52.25999832
C     4.25000000  18.12000084  53.29999924
H     3.91692996  17.36173630  52.59133911
H     8.63000011  17.87999916  51.00999832
H     9.88000011  15.85000038  55.34999847
H     7.36000013  16.02000046  56.00000000
H     5.09000015  16.73999977  55.38999939
H     6.42000008  18.59000015  51.79999924
H    14.47999954  16.48999977  51.26999664
H     3.67000008  18.01000023  54.22000122
H     4.18000031  19.14999962  52.95000076
S    15.38000011  15.77999973  55.93999863
C    17.98999977  15.24000072  55.02999878
C    16.72000122  15.72000027  54.79000092
C    16.29999924  16.03999901  53.46000290
C    17.28000069  16.10000038  52.48000336
C    18.63000107  15.77000046  52.70999908
C    19.65999985  16.00000000  51.75000000
C    20.96999931  15.78999996  52.11000061
C    21.30000114  15.17000008  53.34000015
C    20.31999969  14.88999939  54.27000046
C    18.96000099  15.21999931  54.00000000
C    14.86999989  16.26000023  53.36000061
C    14.23999977  16.13000107  54.62999725
C    12.86000061  16.09000015  54.78000259
C    22.69000053  14.67000008  53.63999939
H    22.99557686  15.10349178  54.59226227
H    18.32999992  15.01999950  56.04000092
H    17.02999878  16.45000076  51.47999573
H    19.42000008  16.59000015  50.86999893
H    21.80999947  16.10999870  51.50000000
H    20.65000153  14.57999992  55.26000214
H    12.30999947  15.86999989  55.68999863
H    23.35000038  14.94999981  52.81000137
H    22.80999947  13.57999992  53.66000366
