96

S    12.10999966  16.95000076  44.86000061
C     9.46000004  17.28000069  45.63000107
C    10.71000004  16.79000092  45.93000031
C    11.06999969  16.32999992  47.23999786
C    10.11999989  16.32999992  48.23999786
C     8.76999950  16.61000061  47.90999985
C     7.72000027  16.55999947  48.88000107
C     6.44000006  16.95999908  48.60000229
C     6.14000034  17.35999870  47.27000427
C     7.11000013  17.53000069  46.31000137
C     8.43000031  17.07999992  46.59000015
C    12.51000023  16.18000031  47.36999893
C    13.21000004  16.53000069  46.18999863
C    14.60000038  16.48999977  46.07999802
C     4.76000023  17.80999947  46.84999847
H     4.50378609  17.26910400  45.93901825
H     9.32999992  17.87999916  44.72999954
H    10.44000053  16.10000038  49.25000000
H     8.01999950  16.38000107  49.91000366
H     5.64000034  17.06999969  49.33000183
H     6.94000006  18.11000061  45.40999985
H    14.98999977  16.87999916  45.14999771
H     4.00000000  17.57999992  47.61000061
H     4.72000027  18.89000130  46.65000153
S    15.81999969  15.64000034  49.75000000
C    18.52000046  15.51000023  48.93000031
C    17.20999908  15.80000019  48.66000366
C    16.82999992  16.22999954  47.35000229
C    17.79000092  16.67000008  46.45000076
C    19.13999939  16.39000130  46.73999786
C    20.17000008  16.36999893  45.75000000
C    21.44000053  15.86999989  45.84999847
C    21.73999977  15.15999985  47.04999924
C    20.79000092  15.13000011  48.04999924
C    19.54000092  15.80999947  47.98999786
C    15.39999962  16.09000015  47.15999985
C    14.70999908  15.86999989  48.37999725
C    13.32999992  15.82999992  48.46000290
C    23.12999916  14.63999939  47.29999924
H    23.55707550  15.10266685  48.18974304
H    18.84000015  14.88000011  49.75999832
H    17.47999954  17.05999947  45.47999954
H    19.92000008  16.90000153  44.82999802
H    22.20000076  16.01000023  45.08999634
H    20.88999939  14.37999916  48.82999802
H    12.92000008  15.44999981  49.40000153
H    23.75999832  14.96999931  46.45000076
H    23.02999878  13.55000019  47.38999939
S    11.61000061  17.19000053  51.30000305
C     8.98999977  17.64999962  52.11999893
C    10.22999954  17.13000107  52.41000366
C    10.65000057  16.69999886  53.70999908
C     9.70000076  16.62999916  54.71000290
C     8.36000061  17.01000023  54.41999817
C     7.39000034  16.95000076  55.45000076
C     6.14000034  17.46000099  55.19000244
C     5.75000000  17.92000008  53.89999771
C     6.74000025  18.20000076  52.98999786
C     8.03999996  17.63000107  53.16999817
C    12.09000015  16.47999954  53.82999802
C    12.72999954  16.72000122  52.58999634
C    14.11000061  16.87999916  52.51999664
C     4.32000017  18.30999947  53.59000397
H     4.02029800  17.63210106  52.79079819
H     8.71999931  18.12999916  51.18000031
H    10.13000011  16.34000015  55.65999985
H     7.65999985  16.54000092  56.42000198
H     5.36999989  17.51000023  55.94999695
H     6.63999987  18.67000008  52.02000046
H    14.52000046  17.32999992  51.62000275
H     3.71000004  18.25000000  54.50000000
H     4.38000011  19.34000015  53.22000122
S    15.44000053  16.01000023  56.16000366
C    18.05999947  15.57999992  55.30000305
C    16.77000046  15.95000076  54.98000336
C    16.36999893  16.54000092  53.74000168
C    17.42000008  16.88999939  52.90999985
C    18.75000000  16.46999931  53.11000061
C    19.77000046  16.42000008  52.11000061
C    21.01000023  15.90999985  52.42000198
C    21.38999939  15.48999977  53.72000122
C    20.45000076  15.62000084  54.72000122
C    19.10000038  15.90999985  54.38999939
C    14.92000008  16.59000015  53.61999893
C    14.27999973  16.39999962  54.86999893
C    12.89000034  16.32999992  54.97000122
C    22.80999947  15.17000008  54.10999680
H    23.02376556  15.46927261  55.13607788
H    18.20000076  15.21000004  56.31000137
H    17.21999931  17.31999969  51.93000031
H    19.63000107  16.73999977  51.07999802
H    21.76000214  15.85000038  51.63999939
H    20.73999786  15.21000004  55.68999863
H    12.35999966  15.88999939  55.80999756
H    23.52000046  15.59999943  53.40000153
H    22.93000031  14.07999992  54.02000046
