96

S    12.13000107  17.19000053  44.03999710
C     9.48999977  17.79999924  44.85000229
C    10.72999954  17.27000046  45.13999939
C    11.00999928  16.77000046  46.45000076
C     9.92000008  16.69000053  47.29999924
C     8.61999989  17.19000053  47.08000183
C     7.57000017  17.11000061  48.04000092
C     6.26999950  17.35999870  47.64999771
C     6.03999996  18.00000000  46.39999771
C     7.05999947  18.11000061  45.48999786
C     8.42000008  17.76000023  45.77999878
C    12.42000008  16.43000031  46.59999847
C    13.14000034  16.69000053  45.40999985
C    14.52999973  16.57999992  45.34000015
C     4.63999987  18.39999962  45.98999786
H     4.11303473  17.59531021  45.47727585
H     9.21000004  18.26000023  43.90999603
H     9.98999977  16.05999947  48.18000031
H     7.81000042  16.52000046  48.92000198
H     5.44000053  16.93000031  48.18999863
H     6.86999989  18.30999947  44.45000076
H    15.13000011  16.82999992  44.47000122
H     4.15999985  18.71999931  46.91999817
H     4.67999983  19.26000023  45.31999969
S    15.52999973  15.88999939  49.06999969
C    18.23999977  15.50000000  48.50000000
C    17.00000000  15.90999985  48.06999969
C    16.69999886  16.29999924  46.72000122
C    17.73999977  16.28000069  45.81999969
C    19.04999924  15.93999958  46.24000168
C    20.13999939  15.97000027  45.31999969
C    21.38999939  15.51000023  45.65999985
C    21.70999908  15.26999950  47.02000046
C    20.68000031  15.31000042  47.94000244
C    19.31999969  15.52000046  47.58999634
C    15.26000023  16.31000137  46.50000000
C    14.47999954  16.07999992  47.65999603
C    13.09000015  16.06999969  47.77000046
C    23.12999916  14.88000011  47.36999893
H    23.38623047  15.08640766  48.40915298
H    18.38000107  15.26000023  49.54999924
H    17.56000137  16.54000092  44.78000259
H    19.86999893  16.28000069  44.31000137
H    22.07999992  15.17000008  44.89999771
H    20.81000137  15.00000000  48.96999741
H    12.61999989  16.06999969  48.75000000
H    23.78999901  15.42000008  46.69000244
H    23.23999786  13.80000019  47.19999695
S    16.03999901  13.22999954  52.09999847
C    18.63999939  12.56999969  51.37000275
C    17.29999924  12.57999992  51.04000092
C    16.79000092  12.28000069  49.72999954
C    17.68000031  11.77999973  48.80000305
C    19.07999992  11.79999924  49.01000214
C    20.07999802  11.32999992  48.09999847
C    21.38000107  11.19999981  48.52000427
C    21.80999947  11.69000053  49.78000259
C    20.89999962  12.34000015  50.58000183
C    19.51000023  12.28000069  50.28999710
C    15.34000015  12.39999962  49.65000153
C    14.85000038  13.05999947  50.79999924
C    13.50000000  13.35999966  50.94999695
C    23.08000183  11.05999947  50.31000137
H    23.40656471  11.57824135  51.21160126
H    19.00000000  12.89000034  52.34000397
H    17.20999908  11.18999958  48.02000046
H    19.84000015  11.09000015  47.06999969
H    22.04999924  10.59999943  47.90999985
H    21.31000137  12.67000008  51.53999710
H    13.07000065  13.64999962  51.90999985
H    22.96999931   9.98000050  50.44000244
H    23.87000084  11.23000050  49.56999969
S    11.94000053  12.36999989  47.38999939
C     9.34000015  12.96000004  48.33000183
C    10.70000076  12.96000004  48.52000427
C    11.21999931  13.34000015  49.79999924
C    10.40999985  13.89000034  50.77999878
C     9.01000023  13.75000000  50.65000153
C     8.07999992  14.18000031  51.63999939
C     6.71999979  14.11000061  51.45000076
C     6.25000000  13.75000000  50.15999603
C     7.07000017  13.21000004  49.19000244
C     8.47000027  13.31999969  49.38999939
C    12.65999985  13.15000057  49.84000397
C    13.17999935  12.61999989  48.62999725
C    14.50000000  12.20000076  48.54000092
C     4.79999971  13.94999981  49.75999832
H     4.59998798  13.64998245  48.73136520
H     8.96000004  12.64000034  47.36000061
H    10.92000008  14.22999954  51.68000031
H     8.52999973  14.67000008  52.50000000
H     6.06999969  14.53999996  52.18999863
H     6.67000008  12.89000034  48.22999954
H    14.88999939  11.85999966  47.58999634
H     4.48999977  14.94999981  50.06999969
H     4.21999979  13.35000038  50.45999908
