96

S    12.42000008  17.06999969  44.13999939
C     9.77000046  17.43999863  44.84000397
C    11.00000000  16.93000031  45.19000244
C    11.28999901  16.48999977  46.52000046
C    10.29000092  16.47999954  47.47000122
C     9.02000046  17.02000046  47.15000153
C     7.96000004  17.00000000  48.09000015
C     6.71000004  17.46999931  47.74000168
C     6.39999962  17.79999924  46.38999939
C     7.40999985  17.81999969  45.47000122
C     8.76000023  17.53000069  45.83000183
C    12.71999931  16.31000137  46.72999954
C    13.42000008  16.60000038  45.52999878
C    14.80999947  16.62999916  45.54000092
C     4.92999983  17.89999962  46.04000092
H     4.70241451  17.39504433  45.10121155
H     9.55000019  17.76000023  43.82999802
H    10.44999981  16.10000038  48.47999954
H     8.22000027  16.59000015  49.06000137
H     5.97000027  17.36999893  48.53000259
H     7.11000013  18.00000000  44.43999863
H    15.29999924  16.79000092  44.58000183
H     4.39000034  17.53999901  46.93000031
H     4.90000010  19.00000000  45.97000122
S    15.93000031  15.64000034  49.20999908
C    18.63999939  15.34999943  48.47000122
C    17.35999870  15.72999954  48.16999817
C    16.98999977  16.03999901  46.81999969
C    17.97000122  16.10000038  45.84999847
C    19.32999992  15.85000038  46.12999725
C    20.34000015  15.86999989  45.12000275
C    21.61999893  15.55999947  45.50000000
C    21.94000053  15.10000038  46.79999924
C    20.95000076  14.92000008  47.74000168
C    19.63999939  15.39000034  47.45999908
C    15.55999947  16.28000069  46.65999985
C    14.84000015  16.02000046  47.85999680
C    13.45000076  16.04999924  47.88999939
C    23.29999924  14.47000027  47.04000092
H    23.72052383  14.76222897  48.00222015
H    18.88000107  15.03999901  49.48999786
H    17.85000038  16.38000107  44.79999924
H    20.06999969  16.00000000  44.08000183
H    22.25000000  15.15999985  44.71000290
H    21.09999847  14.37999916  48.67000198
H    12.94999981  15.97000027  48.85000229
H    23.88000107  14.93999958  46.23000336
H    23.22999954  13.38000107  46.95000076
S    11.89000034  17.51000023  50.89000320
C     9.26000023  17.63000107  51.62000275
C    10.52000046  17.20000076  51.97000122
C    10.95000076  16.61000061  53.20000076
C     9.94999981  16.46000099  54.15000153
C     8.63000011  16.90999985  53.89999771
C     7.65999985  17.00000000  54.93000031
C     6.37000036  17.38999939  54.62999725
C     5.98000002  17.88999939  53.36000061
C     6.98999977  18.07999992  52.44999695
C     8.27000046  17.46999931  52.62000275
C    12.38999939  16.46999931  53.27000046
C    13.04999924  16.90999985  52.09000015
C    14.44000053  16.84999847  52.09000015
C     4.57999992  18.30000114  52.95999908
H     4.26034594  17.90931129  51.99393463
H     9.06999969  18.30000114  50.79000092
H    10.19999981  16.10999870  55.14999771
H     7.90999985  16.73999977  55.94999695
H     5.59000015  17.32999992  55.38000107
H     6.72999954  18.51000023  51.47999573
H    15.03999901  17.05000114  51.20999908
H     3.96000004  17.93000031  53.77999878
H     4.55999994  19.38999939  53.01000214
S    15.48999977  15.72000027  55.72999954
C    18.13999939  15.13000011  54.93999863
C    16.87999916  15.59000015  54.62999725
C    16.61000061  16.15999985  53.34999847
C    17.63000107  16.31999969  52.43000031
C    18.95000076  15.92000008  52.77999878
C    20.07999802  16.20000076  51.95999908
C    21.35000038  15.93000031  52.41000366
C    21.59000015  15.13000011  53.55999756
C    20.52000046  14.78999996  54.34999847
C    19.19999886  15.19000053  53.99000168
C    15.19999981  16.50000000  53.22000122
C    14.45000076  16.23999977  54.38999939
C    13.05999947  16.21999931  54.47999954
C    22.98999977  14.82999992  54.02999878
H    23.29511642  15.19897842  55.00921249
H    18.23999977  14.88999939  56.00000000
H    17.45000076  16.87999916  51.52000046
H    19.93000031  16.65999985  50.98999786
H    22.19000053  16.18999863  51.77000046
H    20.69000053  14.32999992  55.31999969
H    12.57999992  16.04999924  55.44000244
H    23.62999916  15.21999931  53.22999954
H    23.19999886  13.75000000  54.09000015
