96

S    12.44999981  17.05000114  44.38999939
C     9.85000038  17.79999924  45.13999939
C    11.06999969  17.27000046  45.47999954
C    11.33999920  16.84999847  46.81999969
C    10.32999992  16.93000031  47.76000214
C     9.02999973  17.42000008  47.48000336
C     7.97999954  17.53000069  48.43000031
C     6.71999979  17.77000046  47.95000076
C     6.44000006  18.12000084  46.60999680
C     7.48000050  18.12000084  45.70999908
C     8.80000019  17.73999977  46.09000397
C    12.75000000  16.51000023  46.97999954
C    13.48000050  16.61000061  45.77000046
C    14.85000038  16.80999947  45.72000122
C     5.03999996  18.42000008  46.11000061
H     4.76975965  17.93641281  45.17127228
H     9.71000004  18.22999954  44.15000153
H    10.48999977  16.61999893  48.79000092
H     8.15999985  17.19000053  49.45000076
H     5.95000029  17.77000046  48.72000122
H     7.35000038  18.42000008  44.66999817
H    15.34000015  17.11000061  44.79999924
H     4.32000017  18.02000046  46.83000183
H     4.78999996  19.48999977  46.11999893
S    15.90000057  15.81999969  49.41999817
C    18.56999969  15.47000027  48.70999908
C    17.31999969  15.93000031  48.34999847
C    17.01000023  16.40999985  47.04000092
C    18.02000046  16.54999924  46.10000229
C    19.30999947  16.03999901  46.38000107
C    20.36999893  16.15999985  45.43000031
C    21.61000061  15.64000034  45.72000122
C    21.90000153  15.19000053  47.04000092
C    20.88999939  15.11000061  47.97999954
C    19.55999947  15.53999996  47.70000076
C    15.57000065  16.56999969  46.88999939
C    14.85000038  16.31999969  48.08000183
C    13.45999908  16.36000061  48.18000031
C    23.31999969  14.92000008  47.49000168
H    23.52659225  15.32606125  48.48022079
H    18.68000031  14.98999977  49.68000031
H    17.78000069  16.84999847  45.08999634
H    20.25000000  16.60000038  44.43999863
H    22.44999886  15.53999996  45.02999878
H    21.21000099  14.73999977  48.94000244
H    13.02000046  16.25000000  49.15999985
H    24.11000061  15.27999973  46.83000183
H    23.47999954  13.83999920  47.41000366
S    11.82999992  17.65999985  51.24000168
C     9.18000031  18.13999939  52.02999878
C    10.43000031  17.65999985  52.34000397
C    10.64000034  17.02999878  53.61000061
C     9.57999992  16.87999916  54.47999954
C     8.26000023  17.22999954  54.10999680
C     7.16000032  17.15999985  55.01999664
C     5.91000032  17.57999992  54.65000153
C     5.69999981  18.01000023  53.30999756
C     6.74000025  18.23999977  52.43999863
C     8.05000019  17.84000015  52.83000183
C    12.05000019  16.69000053  53.76999664
C    12.76000023  16.93000031  52.56000137
C    14.14000034  16.77999878  52.48000336
C     4.28000021  18.36000061  52.91999817
H     3.91815495  17.82787514  52.04021835
H     9.03999996  18.60999870  51.05999756
H     9.65999985  16.61000061  55.52999878
H     7.30000019  16.87000084  56.04999924
H     5.13000011  17.61000061  55.40999985
H     6.61000013  18.70000076  51.46999741
H    14.68999958  17.07999992  51.59000015
H     3.63000011  18.09999847  53.75999832
H     4.18000031  19.42000008  52.67000198
S    15.22999954  15.95000076  56.19999695
C    17.84000015  15.38000011  55.41999817
C    16.59000015  15.85000038  55.06999969
C    16.23999977  16.17000008  53.72000122
C    17.28000069  16.35000038  52.81999969
C    18.60999870  16.04999924  53.16999817
C    19.63999939  16.29999924  52.22000122
C    20.90999985  15.88999939  52.56000137
C    21.21999931  15.29000092  53.81000137
C    20.25000000  15.25000000  54.79000092
C    18.89000130  15.53999996  54.47999954
C    14.80000019  16.36000061  53.62999725
C    14.09999943  16.18000031  54.85000229
C    12.71999931  16.31999969  54.93999863
C    22.63000107  14.92000008  54.19000244
H    22.92179298  15.48935223  55.07249832
H    17.97000122  15.03999901  56.44000244
H    17.14999962  16.87999916  51.88000107
H    19.48999977  16.69000053  51.20999908
H    21.61999893  16.04999924  51.75000000
H    20.45999908  15.01999950  55.83000183
H    12.32999992  15.97000027  55.89000320
H    23.34000015  15.18000031  53.40000153
H    22.85000038  13.86000061  54.36999893
