96

S    12.53000069  17.45000076  44.66999817
C     9.81999969  17.65999985  45.33000183
C    11.05999947  17.12000084  45.59999847
C    11.23999977  16.35000038  46.79000092
C    10.22999954  16.14999962  47.71999741
C     8.97000027  16.73999977  47.48000336
C     7.86000013  16.56999969  48.36000061
C     6.61000013  17.05999947  48.09000015
C     6.40999985  17.72999954  46.84999847
C     7.46000004  17.95999908  46.00000000
C     8.76000023  17.42000008  46.23000336
C    12.65999985  16.09000015  46.93000031
C    13.50000000  16.60000038  45.90000153
C    14.88999939  16.68000031  45.87999725
C     5.01999950  18.12999916  46.39999771
H     4.62921095  17.59710693  45.53315735
H     9.59000015  18.39999962  44.56999969
H    10.52999973  15.65999985  48.64999771
H     7.97999954  16.00000000  49.27999878
H     5.78999996  16.93000031  48.79000092
H     7.34000015  18.47999954  45.05000305
H    15.44999981  17.01000023  45.01999664
H     4.33999968  18.02999878  47.25999832
H     5.09999990  19.19999886  46.18999863
S    15.62999916  15.52999973  49.61999893
C    18.45000076  15.62999916  49.13999939
C    17.14999962  15.82999992  48.75000000
C    16.94000053  16.32999992  47.43000031
C    18.01000023  16.55999947  46.59000015
C    19.29999924  16.03000069  46.86000061
C    20.29000092  15.95999908  45.84000015
C    21.53000069  15.47000027  46.14999771
C    21.80000114  15.10000038  47.50000000
C    20.82999992  15.08999920  48.47999954
C    19.52999878  15.62000084  48.22000122
C    15.52000046  16.36999893  47.09000015
C    14.68999958  15.98000050  48.18000031
C    13.31999969  15.77999973  48.11999893
C    23.22000122  14.65999985  47.76000214
H    23.67524719  15.20772076  48.58514023
H    18.63000107  15.25000000  50.13999939
H    17.80999947  16.84999847  45.56000137
H    20.00999832  16.51000023  44.93999863
H    22.27999878  15.36999893  45.37000275
H    20.97999954  14.56999969  49.41999817
H    12.68000031  15.57999992  48.96999741
H    23.75999832  14.80999947  46.81000137
H    23.23999786  13.59000015  47.98999786
S    16.04999924  12.94999981  52.42000198
C    18.78000069  12.64999962  51.65999985
C    17.43999863  12.58999920  51.38000107
C    16.92000008  11.98999977  50.19000244
C    17.86000061  11.61000061  49.25000000
C    19.26000023  11.65999985  49.45999908
C    20.20000076  11.10999966  48.54000092
C    21.53000069  11.03999996  48.85000229
C    21.97999954  11.46999931  50.13000107
C    21.11999893  12.05999947  51.03000259
C    19.72999954  12.13000107  50.73999786
C    15.47999954  12.05000019  50.00000000
C    14.88000011  12.68000031  51.11000061
C    13.55000019  13.07000065  51.23000336
C    23.40999985  11.16000080  50.47999954
H    23.67868233  11.41454220  51.50524139
H    19.05999947  12.93000031  52.67000198
H    17.46000099  11.16000080  48.34999847
H    19.80999947  10.52000046  47.70999908
H    22.15999985  10.43000031  48.20999908
H    21.50000000  12.25999928  52.02999878
H    13.12999916  13.55000019  52.11000061
H    23.47999954  10.07999992  50.30000305
H    24.17000008  11.56999969  49.79999924
S    12.25000000  12.13000107  47.61000061
C     9.52999973  12.68000031  48.33000183
C    10.88000107  12.69000053  48.59000397
C    11.33999920  13.12000084  49.87999725
C    10.46000004  13.56999969  50.83000183
C     9.06000042  13.61999989  50.59999847
C     8.21000004  13.99000072  51.68000031
C     6.85999966  13.94999981  51.43000031
C     6.34000015  13.53999996  50.17000198
C     7.21000004  13.12999916  49.18000031
C     8.61999989  13.12000084  49.33000183
C    12.76999950  12.92000008  50.06999969
C    13.40000057  12.30999947  48.95000076
C    14.70999908  11.87000084  48.83999634
C     4.90999985  13.78000069  49.77000427
H     4.71835423  13.19796562  48.86855698
H     9.21000004  12.35000038  47.34000397
H    10.82999992  13.61999989  51.84999847
H     8.64000034  14.29999924  52.63000107
H     6.23000050  14.40999985  52.18999863
H     6.80999994  12.84000015  48.20999908
H    15.03000069  11.61999893  47.83000183
H     4.85000038  14.82999992  49.43999863
H     4.21000004  13.63000011  50.59999847
