96

S    12.38000011  16.76000023  43.88999939
C     9.76000023  17.38000107  44.61999893
C    10.95000076  16.77999878  44.93999863
C    11.23000050  16.34000015  46.26999664
C    10.21000004  16.36999893  47.19999695
C     8.89999962  16.80999947  46.88999939
C     7.78999996  16.80999947  47.77999878
C     6.57000017  17.35000038  47.42000198
C     6.34999990  17.88999939  46.12999725
C     7.42000008  17.85000038  45.25000000
C     8.69000053  17.29999924  45.54999924
C    12.64000034  16.00000000  46.40999603
C    13.40999985  16.27000046  45.25000000
C    14.80000019  16.27000046  45.20000076
C     4.98000002  18.38000107  45.72000122
H     4.68781519  17.85976982  44.80781174
H     9.55999947  18.02999878  43.76999664
H    10.42000008  16.22999954  48.26000214
H     7.99000025  16.48999977  48.80000305
H     5.78999996  17.30999947  48.16999817
H     7.40000010  18.32999992  44.27999878
H    15.36999893  16.54000092  44.31000137
H     4.35999966  18.12000084  46.59000015
H     5.09999990  19.47000122  45.68000031
S    15.72000027  15.22999954  48.94000244
C    18.44000053  15.14999962  48.33000183
C    17.14999962  15.36000061  47.90000153
C    16.87999916  15.88000107  46.59999847
C    17.86000061  15.78999996  45.63000107
C    19.18000031  15.39999962  45.97000122
C    20.25000000  15.38000011  45.02999878
C    21.48999977  14.93000031  45.40000153
C    21.80999947  14.68999958  46.76000214
C    20.81999969  14.82999992  47.70000076
C    19.47999954  15.17000008  47.36000061
C    15.44000053  16.03000069  46.42000198
C    14.68999958  15.72999954  47.57999802
C    13.30000019  15.72999954  47.62000275
C    23.22999954  14.44000053  47.22999954
H    23.45120430  14.77537537  48.24325943
H    18.79999924  15.03000069  49.34999847
H    17.64999962  15.98000050  44.58000183
H    20.10000038  15.86999989  44.06999969
H    22.25000000  14.93000031  44.61999893
H    20.97999954  14.63000107  48.75999832
H    12.75000000  15.67000008  48.54999924
H    23.90999985  14.88000011  46.49000168
H    23.45000076  13.35999966  47.25000000
S    15.85999966  12.81999969  52.27000427
C    18.52000046  12.25000000  51.56999969
C    17.19000053  12.32999992  51.19999695
C    16.69000053  11.84999943  49.94999695
C    17.56999969  11.46999931  48.95999908
C    18.96000099  11.44000053  49.22000122
C    19.89999962  10.88999939  48.30999756
C    21.22999954  10.93999958  48.64999771
C    21.73999977  11.43000031  49.87999725
C    20.79999924  11.84999943  50.79000092
C    19.40000153  11.84999943  50.52999878
C    15.26000023  12.09000015  49.81999969
C    14.67000008  12.65999985  50.97000122
C    13.38000107  13.19000053  50.93999863
C    23.19000053  11.26999950  50.24000168
H    23.36100578  11.44813061  51.30166245
H    18.89000130  12.56999969  52.54000092
H    17.19000053  11.18999958  47.97999954
H    19.52000046  10.50000000  47.36000061
H    21.83000183  10.31000042  47.98999786
H    21.14000130  12.09000015  51.79999924
H    13.02000046  13.88000011  51.70000076
H    23.64000130  10.31999969  49.92000198
H    23.85000038  12.02000046  49.78000259
S    11.87999916  12.02999973  47.43000031
C     9.23999977  12.53999901  48.30999756
C    10.59999943  12.57999992  48.53000259
C    11.17000008  13.12999916  49.72999954
C    10.26000023  13.61999989  50.65999985
C     8.86999989  13.64999962  50.44000244
C     7.96000004  14.09000015  51.45000076
C     6.61000013  14.06000042  51.22000122
C     6.07999992  13.66000080  49.95999908
C     6.90999985  13.03999996  49.06000137
C     8.31999969  13.02000046  49.27000046
C    12.57999992  12.79999924  49.86000061
C    13.12000084  12.20000076  48.68999863
C    14.47999954  11.92000008  48.67000198
C     4.65999985  14.04999924  49.61999893
H     4.34048080  13.55296993  48.70404434
H     8.80999947  12.05999947  47.43000031
H    10.57999992  13.85000038  51.66999817
H     8.34000015  14.56999969  52.35000229
H     5.95000029  14.63000107  51.86999893
H     6.67000008  12.76000023  48.04000092
H    14.91000080  11.56000042  47.74000168
H     4.61999989  15.13000011  49.41999817
H     3.97000027  13.76999950  50.41999817
