96

S    12.02999973  17.20999908  44.47000122
C     9.36999989  17.64999962  45.14999771
C    10.62999916  17.28000069  45.56000137
C    10.95999908  16.76000023  46.84999847
C     9.90999985  16.51000023  47.70999908
C     8.56999969  16.69999886  47.27000427
C     7.46000004  16.67000008  48.15999985
C     6.19000006  17.02999878  47.78999710
C     5.93999958  17.57999992  46.50000000
C     6.97000027  17.61999893  45.59999847
C     8.28999996  17.22999954  45.96000290
C    12.38000011  16.52000046  47.04999924
C    13.07999992  16.79000092  45.84000015
C    14.47000027  16.82999992  45.83000183
C     4.56999969  18.09999847  46.12999725
H     4.27025175  17.80738831  45.12370300
H     9.22000027  18.04000092  44.13999939
H    10.06999969  16.13000107  48.72000122
H     7.62000036  16.50000000  49.22000122
H     5.42000008  17.20000076  48.54000092
H     6.86999989  18.31999969  44.77000427
H    15.00000000  17.20999908  44.95999908
H     3.86000013  17.75000000  46.88999939
H     4.53999996  19.19999886  46.16000366
S    15.44000053  15.64000034  49.48999786
C    18.19000053  15.44000053  48.88999939
C    16.93000031  15.85999966  48.54000092
C    16.54999924  16.36999893  47.25999832
C    17.54999924  16.54999924  46.31999969
C    18.81999969  15.98999977  46.56999969
C    19.86999893  16.11999893  45.61000061
C    21.12999916  15.64000034  45.84999847
C    21.42999840  15.06000042  47.11000061
C    20.45000076  14.91000080  48.06999969
C    19.12999916  15.38000011  47.84000015
C    15.11999989  16.54999924  47.02999878
C    14.37000084  16.09000015  48.15000153
C    12.98999977  16.01000023  48.20000076
C    22.86999893  14.77000046  47.44999695
H    23.15501976  15.26878834  48.37631989
H    18.43000031  15.08999920  49.89999771
H    17.35999870  16.92000008  45.31999969
H    19.62000084  16.52000046  44.61999893
H    21.91999817  15.77999973  45.12000275
H    20.76999855  14.52000046  49.02999878
H    12.50000000  15.77000046  49.13999939
H    23.45999908  15.21000004  46.63999939
H    23.06999969  13.68999958  47.36000061
S    15.92000008  12.82999992  52.61000061
C    18.46999931  12.28999996  51.70000076
C    17.13999939  12.38999939  51.39999771
C    16.67000008  12.17000008  50.06000137
C    17.53999901  11.77000046  49.06000137
C    18.89999962  11.61000061  49.38000107
C    19.86999893  11.16000080  48.43000031
C    21.21000099  11.16000080  48.73000336
C    21.73000145  11.56000042  49.99000168
C    20.79000092  11.84000015  50.96000290
C    19.40000153  11.90000057  50.70000076
C    15.24000072  12.44999981  50.04000092
C    14.72000027  12.86000061  51.30000305
C    13.36999989  13.17999935  51.39999771
C    23.21000099  11.49000072  50.27000046
H    23.53799438  11.82512283  51.25397873
H    18.89000130  12.53999901  52.68000031
H    17.20999908  11.51000023  48.04999924
H    19.47000122  10.78999996  47.49000168
H    21.76000214  10.75000000  47.88999939
H    21.17000198  11.95000076  51.97999954
H    12.94000053  13.48000050  52.35000229
H    23.59000015  10.47000027  50.10000229
H    23.78999901  12.13000107  49.59999847
S    11.85999966  12.38999939  47.75000000
C     9.27999973  12.97000027  48.57999802
C    10.60999966  12.89000034  48.90999603
C    11.10999966  13.12999916  50.22999573
C    10.17000008  13.48000050  51.17000198
C     8.78999996  13.61999989  50.86999893
C     7.90000010  14.15999985  51.84999847
C     6.58999968  14.39000034  51.49000168
C     6.11000013  14.04999924  50.20000076
C     6.91999960  13.45999908  49.25000000
C     8.30999947  13.35000038  49.54000092
C    12.56999969  13.03999996  50.27000046
C    13.09000015  12.63000011  49.01000214
C    14.44000053  12.35000038  48.89999771
C     4.74000025  14.48999977  49.72999954
H     4.52603674  14.09060192  48.73863602
H     8.89000034  12.69999981  47.61000061
H    10.60999966  13.80000019  52.11000061
H     8.28999996  14.56999969  52.77000046
H     5.84999990  14.92000008  52.09000015
H     6.54999971  13.22000027  48.26000214
H    14.89999962  12.11999989  47.94000244
H     4.59999990  15.57999992  49.82999802
H     4.03999996  14.14000034  50.50000000
