96

S    12.31999969  17.07999992  44.27000046
C     9.63000011  17.35999870  44.95999908
C    10.90000057  17.01000023  45.33000183
C    11.23000050  16.69999886  46.69000244
C    10.21000004  16.61000061  47.61000061
C     8.93000031  17.12000084  47.27000427
C     7.86999989  17.17000008  48.22000122
C     6.65000010  17.71000099  47.90000153
C     6.35999966  18.12999916  46.58000183
C     7.31999969  18.04000092  45.59999847
C     8.61999989  17.56000137  45.93000031
C    12.67000008  16.57999992  46.90999985
C    13.35000038  16.82999992  45.68999863
C    14.73999977  16.87999916  45.68999863
C     4.92000008  18.42000008  46.23000336
H     4.54433966  17.72538185  45.47867966
H     9.39999962  17.56000137  43.90999603
H    10.34000015  16.20000076  48.61000061
H     8.14000034  16.84000015  49.22000122
H     5.91000032  17.75000000  48.69999695
H     7.26999998  18.38999939  44.56999969
H    15.26999950  17.30999947  44.85000229
H     4.32999992  18.46999931  47.15999985
H     4.86999989  19.42000008  45.79000092
S    15.85999966  16.01000023  49.40000153
C    18.53000069  15.77999973  48.68999863
C    17.26000023  16.15999985  48.31999969
C    16.94000053  16.53000069  46.97000122
C    17.93000031  16.51000023  46.00000000
C    19.27000046  16.21999931  46.35000229
C    20.35000038  16.29999924  45.40999985
C    21.59000015  15.85000038  45.79000092
C    21.83000183  15.26999950  47.06999969
C    20.85000038  15.36000061  48.02999878
C    19.54000092  15.80999947  47.70000076
C    15.50000000  16.62999916  46.84000015
C    14.78000069  16.32999992  48.02999878
C    13.38999939  16.29999924  48.06999969
C    23.19000053  14.81999969  47.52999878
H    23.55111694  15.45726776  48.33720779
H    18.67000008  15.26999950  49.64000320
H    17.64999962  16.61000061  44.95999908
H    20.15000153  16.55999947  44.38000107
H    22.40999985  15.85999966  45.07999802
H    21.09000015  14.93999958  49.01000214
H    12.88000011  15.90999985  48.95000076
H    23.81999969  14.84000015  46.63999939
H    23.11000061  13.80000019  47.91999817
S    16.18000031  13.28999996  52.02999878
C    18.81000137  12.71999931  51.23000336
C    17.46999931  12.76000023  50.93000031
C    16.97000122  12.42000008  49.62999725
C    17.84000015  11.97000027  48.64999771
C    19.22999954  11.90000057  48.90999603
C    20.17999840  11.19999981  48.13000107
C    21.52000046  11.11999989  48.43000031
C    22.00000000  11.63000011  49.65999985
C    21.05999947  12.05000019  50.58000183
C    19.70000076  12.25999928  50.21999741
C    15.52000046  12.53000069  49.59000015
C    14.96000099  13.10999966  50.76000214
C    13.60000038  13.30999947  50.97999954
C    23.39999962  11.31000042  50.15999603
H    23.58482933  11.55880928  51.20499802
H    19.10000038  13.01000023  52.22999954
H    17.32999992  11.46999931  47.83000183
H    19.72999954  10.75000000  47.23999786
H    22.19000053  10.57999992  47.76000214
H    21.38000107  12.17000008  51.60999680
H    13.22000027  13.78000069  51.88000107
H    23.61000061  10.26000023  49.92000198
H    23.97999954  11.98999977  49.52000046
S    12.11999989  12.64999962  47.30999756
C     9.52999973  13.17000008  48.20000076
C    10.86999989  13.07999992  48.48999786
C    11.35000038  13.35999966  49.80999756
C    10.47000027  13.78000069  50.79000092
C     9.09000015  13.90999985  50.50000000
C     8.19000053  14.35999966  51.50000000
C     6.83000040  14.42000008  51.27999878
C     6.35999966  14.04000092  50.00000000
C     7.18999958  13.63000011  48.99000168
C     8.60999966  13.61999989  49.18000031
C    12.77999973  13.09999943  49.86000061
C    13.30999947  12.63000011  48.62999725
C    14.63000107  12.20000076  48.55999756
C     4.94999981  14.34999943  49.54999924
H     4.66534233  13.82338333  48.63909531
H     9.10000038  12.79999924  47.27000427
H    10.85000038  13.97999954  51.79000092
H     8.63000011  14.67000008  52.44999695
H     6.10000038  14.78999996  51.98999786
H     6.90999985  13.52000046  47.94000244
H    14.96999931  11.65999985  47.68000031
H     4.90000010  15.43000031  49.34000015
H     4.25000000  14.22000027  50.38999939
