96

S    12.23999977  16.35000038  44.01000214
C     9.61000061  16.86000061  44.81999969
C    10.85999966  16.40999985  45.13000107
C    11.21999931  15.97000027  46.45000076
C    10.25000000  15.98000050  47.43999863
C     8.93999958  16.44000053  47.16999817
C     7.86999989  16.39000130  48.09999847
C     6.58999968  16.76000023  47.74000168
C     6.23000050  17.20999908  46.45000076
C     7.26999998  17.20000076  45.54999924
C     8.63000011  16.90000153  45.84000015
C    12.64999962  15.77999973  46.59999847
C    13.30000019  15.80999947  45.33000183
C    14.68000031  15.84000015  45.21999741
C     4.85000038  17.63000107  46.00000000
H     4.44393826  16.98172760  45.22349930
H     9.22999954  17.04000092  43.81000137
H    10.47000027  15.59000015  48.43999863
H     8.05000019  15.97000027  49.08000183
H     5.88000011  16.65999985  48.55999756
H     7.23000002  17.43999863  44.48999786
H    15.03000069  16.05999947  44.22000122
H     4.13999987  17.68000031  46.84000015
H     4.92000008  18.65999985  45.63000107
S    15.92000008  15.42000008  49.02000046
C    18.51000023  14.81999969  48.20999908
C    17.23999977  15.21999931  47.84999847
C    16.90000153  15.53999996  46.50000000
C    17.92000008  15.62000084  45.56999969
C    19.25000000  15.36000061  45.97000122
C    20.38000107  15.62999916  45.14999771
C    21.63999939  15.19000053  45.47999954
C    21.94000053  14.68999958  46.77000046
C    20.92000008  14.57999992  47.68000031
C    19.57999992  14.81999969  47.27000427
C    15.46000004  15.67999935  46.38000107
C    14.80999947  15.59000015  47.63999939
C    13.43999958  15.75000000  47.76000214
C    23.35000038  14.34000015  47.21000290
H    23.64919090  14.80303192  48.15031433
H    18.61999893  14.52000046  49.25000000
H    17.77000046  16.07999992  44.59000015
H    20.20999908  16.14999962  44.20999908
H    22.47999954  15.26000023  44.79000092
H    21.02999878  14.42999935  48.75000000
H    12.94999981  15.67000008  48.72000122
H    24.06999969  14.68999958  46.46999741
H    23.52000046  13.26000023  47.29999924
S    16.18999863  12.64999962  52.48000336
C    18.88000107  12.28999996  51.59000015
C    17.53000069  12.38999939  51.33999634
C    17.04000092  12.05000019  50.04000092
C    17.94000053  11.64000034  49.06999969
C    19.30999947  11.40999985  49.33000183
C    20.15000153  10.65999985  48.47000122
C    21.48999977  10.55999947  48.79000092
C    22.01999855  11.00999928  50.02999878
C    21.15999985  11.52999973  50.97000122
C    19.79999924  11.77999973  50.63999939
C    15.57999992  11.98999977  50.00000000
C    14.98999977  12.51999950  51.18000031
C    13.63999939  12.79999924  51.30000305
C    23.50000000  10.90999985  50.31999969
H    23.68494797  11.12340260  51.37278366
H    19.27000046  12.53000069  52.57999802
H    17.50000000  11.16000080  48.20999908
H    19.65999985  10.36999893  47.54000092
H    22.17000008  10.08999920  48.09000015
H    21.45000076  12.01000023  51.90000153
H    13.27000046  13.20000076  52.23999786
H    23.84000015   9.88000011  50.15999603
H    24.10000038  11.59999943  49.72000122
S    12.23999977  11.80999947  47.71999741
C     9.57999992  12.15999985  48.46000290
C    10.90999985  12.25000000  48.81000137
C    11.38000011  12.64999962  50.10000229
C    10.44999981  13.15000057  51.00000000
C     9.06999969  13.10999966  50.70000076
C     8.14999962  13.67000008  51.63999939
C     6.83000040  13.76000023  51.26999664
C     6.42000008  13.40000057  49.95999908
C     7.28999996  12.88000011  49.02999878
C     8.65999985  12.69999981  49.38999939
C    12.81999969  12.50000000  50.20000076
C    13.43000031  11.96000004  49.03999710
C    14.75999928  11.59000015  48.94000244
C     4.94999981  13.56999969  49.62999725
H     4.67906618  13.27054787  48.61756134
H     9.25000000  11.84999943  47.47000122
H    10.88000107  13.55999947  51.90999985
H     8.56999969  14.06000042  52.56000137
H     6.06999969  14.11999893  51.95000076
H     7.00000000  12.53000069  48.04999924
H    15.19000053  11.18000031  48.02999878
H     4.92000008  14.65999985  49.69999695
H     4.28999996  13.10999966  50.38000107
