96

S    12.20999908  17.17000008  44.41999817
C     9.46000004  17.46999931  45.05000305
C    10.75000000  17.17000008  45.43000031
C    11.07999992  16.69999886  46.73999786
C    10.03999901  16.42000008  47.61000061
C     8.75000000  16.92000008  47.30999756
C     7.72000027  16.88999939  48.29999924
C     6.48000002  17.42000008  48.02000046
C     6.15000010  17.94999886  46.73999786
C     7.13000011  18.01000023  45.77999878
C     8.43999958  17.50000000  46.04000092
C    12.48999977  16.40999985  46.93999863
C    13.25000000  16.68000031  45.77000046
C    14.63999939  16.55999947  45.70000076
C     4.69999981  18.27999878  46.45000076
H     4.33520603  17.66485786  45.62742615
H     9.27999973  17.71000099  44.01000214
H    10.21000004  16.03000069  48.61000061
H     7.97999954  16.31999969  49.18000031
H     5.68000031  17.18000031  48.70999908
H     6.98999977  18.47999954  44.80999756
H    15.10000038  16.77999878  44.73999786
H     4.11000013  18.12000084  47.36000061
H     4.53000021  19.32999992  46.16000366
S    15.65000057  15.57000065  49.40999985
C    18.31999969  15.21000004  48.68999863
C    17.09000015  15.72000027  48.36999893
C    16.79000092  16.18999863  47.04999924
C    17.79999924  16.32999992  46.11999893
C    19.11000061  15.92000008  46.45999908
C    20.13999939  15.90999985  45.47999954
C    21.40000153  15.47000027  45.84000015
C    21.63999939  14.93999958  47.12999725
C    20.61000061  14.65999985  48.00000000
C    19.34999847  15.26999950  47.71999741
C    15.34999943  16.31999969  46.88000107
C    14.60000038  16.01000023  48.04999924
C    13.21000004  15.93000031  48.04000092
C    23.05000114  14.52000046  47.50000000
H    23.42146683  15.11291695  48.33580017
H    18.60999870  14.78999996  49.65000153
H    17.69000053  16.75000000  45.12000275
H    19.90999985  16.46000099  44.56999969
H    22.23999977  15.54999924  45.15999603
H    20.86000061  14.32999992  49.00000000
H    12.69999981  15.65999985  48.95999908
H    23.64000130  14.68000031  46.58000183
H    23.12999916  13.45999908  47.76000214
S    11.85999966  17.43999863  51.14999771
C     9.21000004  17.85000038  51.88000107
C    10.46000004  17.39999962  52.23999786
C    10.77000046  17.01000023  53.57999802
C     9.77999973  16.84000015  54.52000046
C     8.45000076  17.18000031  54.15999985
C     7.42000008  17.12000084  55.13999939
C     6.14000034  17.52000046  54.80999756
C     5.86999989  18.06999969  53.53000259
C     6.86999989  18.18000031  52.58999634
C     8.18000031  17.68000031  52.84000015
C    12.18999958  16.72000122  53.73000336
C    12.88000011  16.94000053  52.50999832
C    14.26000023  16.90000153  52.35000229
C     4.46000004  18.56999969  53.27999878
H     4.01863050  17.97201538  52.48268509
H     8.97999954  18.38999939  50.97000122
H     9.98000050  16.52000046  55.54000092
H     7.59000015  16.60000038  56.07999802
H     5.32999992  17.39999962  55.52999878
H     6.70000029  18.72999954  51.66999817
H    14.75000000  17.05000114  51.39999771
H     3.78999996  18.57999992  54.15000153
H     4.51000023  19.59000015  52.88999939
S    15.43000031  16.11999893  56.04999924
C    18.04000092  15.52000046  55.27000046
C    16.80999947  16.05999947  54.94999695
C    16.45000076  16.39999962  53.61000061
C    17.46999931  16.36999893  52.67000198
C    18.79999924  15.98000050  52.95999908
C    19.85999870  15.82999992  52.02000046
C    21.04999924  15.27999973  52.43999863
C    21.32999802  14.85999966  53.75999832
C    20.30999947  14.94999981  54.68999863
C    19.05999947  15.50000000  54.29000092
C    15.01000023  16.61999893  53.50000000
C    14.29999924  16.35000038  54.69999695
C    12.92000008  16.29999924  54.85000229
C    22.69000053  14.35999966  54.20000076
H    23.16184235  15.09635925  54.85057068
H    18.30000114  15.19000053  56.26999664
H    17.27000046  16.59000015  51.63000107
H    19.71999931  16.10999870  50.97999954
H    21.80000114  15.14999962  51.65999985
H    20.51000214  14.73000050  55.72999954
H    12.46999931  16.03000069  55.79999924
H    23.34000015  14.27000046  53.31999969
H    22.46000099  13.42000008  54.72999954
