96

S    12.15000057  16.56999969  44.45999908
C     9.48999977  17.13999939  45.25000000
C    10.78999996  16.82999992  45.56999969
C    11.13000011  16.69999886  46.95999908
C    10.15999985  16.80999947  47.93000031
C     8.78999996  16.92000008  47.58999634
C     7.75000000  16.90999985  48.56999969
C     6.47000027  17.28000069  48.22999954
C     6.12999964  17.54999924  46.88000107
C     7.09999990  17.50000000  45.90999985
C     8.46000004  17.21999931  46.22000122
C    12.53999901  16.38000107  47.09999847
C    13.22000027  16.32999992  45.84999847
C    14.60999966  16.22999954  45.77999878
C     4.67999983  17.69000053  46.49000168
H     4.39583302  17.18560219  45.56645966
H     9.19000053  17.21999931  44.20999908
H    10.43000031  16.50000000  48.94000244
H     8.01999950  16.81999969  49.61999893
H     5.73000002  17.27000046  49.02999878
H     6.98000002  17.72999954  44.86000061
H    15.14000034  16.43000031  44.86000061
H     3.96000004  17.48999977  47.29000092
H     4.56999969  18.78000069  46.38999939
S    15.71000004  15.78999996  49.59000015
C    18.37000084  15.38000011  48.92000198
C    17.09000015  15.65999985  48.48999786
C    16.75000000  15.88000107  47.11000061
C    17.80999947  16.00000000  46.22000122
C    19.14999962  15.71000004  46.56999969
C    20.19000053  15.62000084  45.59999847
C    21.35999870  14.96000099  45.86999893
C    21.67000008  14.70999908  47.22999954
C    20.71000099  14.85999966  48.20000076
C    19.40000153  15.34999943  47.94000244
C    15.31000042  16.03000069  46.97999954
C    14.60999966  15.92000008  48.20999908
C    13.23999977  16.13000107  48.29000092
C    23.08000183  14.28999996  47.57999802
H    23.39900398  14.85002995  48.45903397
H    18.30000114  15.06999969  49.95999908
H    17.48999977  16.36999893  45.25000000
H    20.05000114  15.90999985  44.55999756
H    22.06000137  14.86999989  45.04000092
H    20.92000008  14.40000057  49.15999985
H    12.77999973  16.13999939  49.27000046
H    23.50000000  14.57999992  46.60999680
H    23.15999985  13.20000076  47.68000031
S    12.10999966  17.21999931  51.56999969
C     9.44999981  17.64000130  52.11999893
C    10.65999985  17.20000076  52.60000229
C    10.90000057  16.82999992  53.95999908
C     9.82999992  16.76000023  54.82999802
C     8.60999966  17.32999992  54.40999985
C     7.51999950  17.32999992  55.31999969
C     6.28000021  17.75000000  54.88999939
C     5.98999977  18.04000092  53.53000259
C     7.03999996  18.04000092  52.64999771
C     8.36999989  17.68000031  53.04000092
C    12.34000015  16.76000023  54.20000076
C    13.09999943  16.95999908  53.02000046
C    14.48999977  16.95000076  53.04000092
C     4.57999992  18.37000084  53.11000061
H     4.19013882  17.55483627  52.50040054
H     9.32999992  18.02000046  51.11000061
H     9.88000011  16.46000099  55.87999725
H     7.65999985  16.88999939  56.31000137
H     5.46999979  17.72999954  55.61000061
H     6.85999966  18.35000038  51.62000275
H    15.11999989  16.93000031  52.15000153
H     3.94000006  18.55999947  53.97999573
H     4.55000019  19.30999947  52.54000092
S    15.43000031  15.92000008  56.72999954
C    18.12000084  15.32999992  56.09000397
C    16.88999939  15.80999947  55.72000122
C    16.57999992  16.29999924  54.40999985
C    17.56999969  16.25000000  53.43999863
C    18.88000107  15.81999969  53.76999664
C    19.89999962  15.65999985  52.78999710
C    21.11000061  15.08999920  53.09999847
C    21.40999985  14.70000076  54.43000031
C    20.40999985  14.75999928  55.38000107
C    19.12999916  15.29999924  55.08999634
C    15.17000008  16.63999939  54.22000122
C    14.39000034  16.39000130  55.37000275
C    13.00000000  16.39000130  55.37000275
C    22.80999947  14.27999973  54.81999969
H    23.27385521  15.07925797  55.39803696
H    18.38000107  14.98000050  57.09000015
H    17.42000008  16.53000069  52.41000366
H    19.68000031  16.06999969  51.81000137
H    21.98999786  15.03000069  52.45999908
H    20.55000114  14.32999992  56.37000275
H    12.46000099  16.05999947  56.25999832
H    23.38000107  14.01000023  53.92000198
H    22.79000092  13.30999947  55.34000015
