96

S    12.61000061  16.98999977  44.18000031
C     9.98000050  17.51000023  44.86999893
C    11.19999981  17.00000000  45.26000214
C    11.46999931  16.38000107  46.52000046
C    10.38000011  16.20000076  47.36000061
C     9.13999939  16.81999969  47.09999847
C     8.02999973  16.79000092  48.00000000
C     6.76999998  17.13999939  47.57999802
C     6.56000042  17.63000107  46.25999832
C     7.62000036  17.84000015  45.40000153
C     8.90999985  17.38999939  45.79999924
C    12.89999962  16.22999954  46.72000122
C    13.63999939  16.51000023  45.54000092
C    15.01999950  16.39999962  45.44000244
C     5.18000031  18.02999878  45.80999756
H     4.73927736  17.41156578  45.02807236
H     9.89000034  17.97999954  43.88999939
H    10.57000065  15.72000027  48.30999756
H     8.03999996  16.21999931  48.93000031
H     5.88000011  16.97000122  48.18000031
H     7.50000000  18.34000015  44.45000076
H    15.50000000  16.68000031  44.51000214
H     4.48000002  18.06999969  46.65000153
H     5.28999996  19.06999969  45.47999954
S    16.01000023  15.44000053  49.22999954
C    18.68000031  15.14000034  48.54000092
C    17.39999962  15.43000031  48.13000107
C    17.07999992  15.77000046  46.77000046
C    18.15000153  16.01000023  45.91999817
C    19.45999908  15.62000084  46.29000092
C    20.42000008  15.46000004  45.25000000
C    21.65999985  14.92000008  45.50000000
C    22.04999924  14.68000031  46.84999847
C    21.14000130  14.93000031  47.84999847
C    19.76000023  15.21999931  47.63999939
C    15.65000057  15.98999977  46.62000275
C    14.94999981  15.72000027  47.83000183
C    13.56999969  15.84000015  47.88000107
C    23.45999908  14.23999977  47.16999817
H    23.66582489  14.44582462  48.22041321
H    18.89000130  14.78999996  49.54000092
H    17.97999954  16.29999924  44.88999939
H    20.05000114  15.85000038  44.31000137
H    22.36999893  14.75000000  44.69999695
H    21.47999954  14.72000027  48.86000061
H    13.02000046  15.50000000  48.75999832
H    24.11999893  14.77000046  46.46999741
H    23.57000160  13.15999985  47.01000214
S    12.18999958  17.06999969  51.00999832
C     9.51000023  17.38999939  51.70999908
C    10.78999996  17.05000114  52.09000015
C    11.09000015  16.64999962  53.43999863
C    10.08999920  16.65999985  54.40000153
C     8.76000023  16.93000031  54.02000046
C     7.65999985  16.90999985  54.92000198
C     6.43000031  17.47999954  54.68000031
C     6.17999983  17.78000069  53.30999756
C     7.13999987  17.71000099  52.32999802
C     8.47000027  17.35000038  52.67000198
C    12.53000069  16.56999969  53.57999802
C    13.27000046  16.86000061  52.41000366
C    14.65000057  16.79000092  52.25000000
C     4.78999996  18.23999977  52.91999817
H     4.27767038  17.52843094  52.27247238
H     9.32999992  17.73999977  50.70000076
H    10.22999954  16.28999901  55.40999985
H     7.77999973  16.65999985  55.97000122
H     5.75999975  17.82999992  55.45999908
H     6.84999990  17.92000008  51.30000305
H    15.13000011  16.73999977  51.27999878
H     4.21999979  18.30000114  53.85000229
H     4.94000006  19.26000023  52.56000137
S    15.78999996  15.71000004  55.93999863
C    18.37000084  15.11999989  55.15999603
C    17.13000107  15.59999943  54.79000092
C    16.75000000  16.03999901  53.47999954
C    17.77000046  16.04999924  52.54000092
C    19.09000015  15.62999916  52.83000183
C    20.13000107  15.81999969  51.88000107
C    21.40999985  15.42000008  52.19999695
C    21.70999908  14.98999977  53.52000427
C    20.73999786  14.94999981  54.48999786
C    19.37999916  15.21999931  54.16999817
C    15.36999893  16.47999954  53.40999985
C    14.70000076  16.21000099  54.62999725
C    13.30999947  16.25000000  54.69999695
C    23.15000153  14.65999985  53.80000305
H    23.51862907  15.06407261  54.74283981
H    18.45000076  14.75000000  56.18000031
H    17.59000015  16.31999969  51.50000000
H    19.97999954  16.22999954  50.87999725
H    22.23999977  15.47999954  51.50000000
H    21.11999893  14.72000027  55.48999786
H    12.77999973  16.06999969  55.63000107
H    23.78000069  14.98000050  52.95999908
H    23.15000153  13.55999947  53.76999664
