96

S    12.23999977  17.29999924  44.34999847
C     9.55000019  17.56999969  45.06000137
C    10.80000019  17.11000061  45.37000275
C    11.16000080  16.76000023  46.70999908
C    10.19000053  16.63999939  47.70000076
C     8.85000038  16.88999939  47.32999802
C     7.78999996  16.76000023  48.27000046
C     6.53999996  17.25000000  47.95999908
C     6.19999981  17.73999977  46.66999817
C     7.21000004  17.89999962  45.75000000
C     8.52999973  17.46000099  46.04000092
C    12.60000038  16.69999886  46.91999817
C    13.30000019  16.84999847  45.70000076
C    14.67000008  16.70999908  45.56999969
C     4.76000023  17.87999916  46.23000336
H     4.51747274  17.43061066  45.26702499
H     9.23999977  17.86000061  44.05000305
H    10.31999969  16.13999939  48.64999771
H     8.01999950  16.46999931  49.29999924
H     5.84000015  17.05000114  48.75999832
H     6.96000004  18.15000153  44.72000122
H    15.27999973  16.95999908  44.71000290
H     4.13999987  17.45000076  47.02000046
H     4.48000002  18.94000053  46.23000336
S    15.65999985  15.51000023  49.29000092
C    18.26000023  15.01000023  48.57999802
C    17.06999969  15.57999992  48.20999908
C    16.76000023  15.97000027  46.86999893
C    17.76000023  15.95000076  45.90999985
C    19.06999969  15.59999943  46.31000137
C    20.12000084  15.51000023  45.34999847
C    21.35999870  15.06000042  45.73999786
C    21.61999893  14.52999973  47.02999878
C    20.58000183  14.52000046  47.94000244
C    19.30999947  15.08999920  47.63000107
C    15.34000015  16.21000099  46.70000076
C    14.63999939  16.02000046  47.91999817
C    13.26000023  16.11999893  48.01000214
C    22.88999939  13.81000042  47.41000366
H    23.41585541  14.49219131  48.07798004
H    18.23999977  14.22999954  49.34000015
H    17.61000061  16.21000099  44.86999893
H    19.98999977  15.62000084  44.27999878
H    22.07999992  14.96999931  44.93000031
H    20.59999847  13.99000072  48.88999939
H    12.71999931  15.65999985  48.82999802
H    23.38999939  13.67000008  46.44000244
H    22.70000076  12.84000015  47.88999939
S    11.92000008  17.29999924  50.79000092
C     9.19000053  17.75000000  51.52999878
C    10.44000053  17.20999908  51.76000214
C    10.75000000  16.72999954  53.08000183
C     9.81000042  16.73999977  54.09999847
C     8.51000023  17.22999954  53.83999634
C     7.44999981  17.18000031  54.79000092
C     6.21000004  17.72999954  54.58000183
C     5.88999987  18.20999908  53.27999878
C     6.89000034  18.30000114  52.34000397
C     8.19000053  17.75000000  52.54000092
C    12.18000031  16.56999969  53.27999878
C    12.97000027  16.90999985  52.15999985
C    14.35999966  16.98999977  52.21000290
C     4.42999983  18.45000076  52.95999908
H     4.14444637  17.92886543  52.04623032
H     9.03999996  18.38000107  50.66999817
H    10.10000038  16.54000092  55.13000107
H     7.57999992  16.60000038  55.70000076
H     5.42000008  17.38999939  55.24000168
H     6.77999973  18.68999863  51.33999634
H    14.78999996  17.13999939  51.23000336
H     3.84999990  18.12999916  53.82999802
H     4.30000019  19.54000092  52.95999908
S    15.27999973  15.72999954  55.86999893
C    17.97999954  15.29999924  55.21999741
C    16.72000122  15.71000004  54.84000397
C    16.45000076  16.18000031  53.50999832
C    17.48999977  16.18999863  52.58999634
C    18.75000000  15.60999966  52.85999680
C    19.80999947  15.65999985  51.90000153
C    21.04000092  15.17000008  52.25999832
C    21.27000046  14.68999958  53.56999969
C    20.29999924  14.77000046  54.54000092
C    18.98999977  15.25000000  54.22999954
C    15.03999901  16.50000000  53.33000183
C    14.27000046  16.20000076  54.47999954
C    12.89000034  16.27000046  54.45000076
C    22.70000076  14.37999916  53.96999741
H    23.01941109  14.99042892  54.81465912
H    18.18000031  15.00000000  56.24000168
H    17.20999908  16.46000099  51.58000183
H    19.60000038  16.18000031  50.97999954
H    21.88999939  15.26999950  51.59000015
H    20.46999931  14.45000076  55.56999969
H    12.22000027  16.17000008  55.30000305
H    23.31000137  14.73999977  53.13999939
H    22.89999962  13.31999969  54.13000107
