96

S    12.43000031  16.90999985  43.99000168
C     9.72999954  17.34000015  44.68999863
C    11.00999928  16.98999977  45.05000305
C    11.36000061  16.56999969  46.37000275
C    10.34000015  16.46999931  47.29999924
C     9.00000000  16.84000015  47.00000000
C     7.90999985  16.76000023  47.90999985
C     6.67000008  17.20999908  47.50999832
C     6.39999962  17.61999893  46.18000031
C     7.37999964  17.56999969  45.21999741
C     8.69999981  17.26000023  45.65999985
C    12.79000092  16.50000000  46.66999817
C    13.45000076  16.67000008  45.41999817
C    14.84000015  16.64999962  45.40999985
C     5.00000000  18.02999878  45.77999878
H     4.68129158  17.54131317  44.85928726
H     9.47000027  17.70000076  43.69999695
H    10.53999996  15.97000027  48.23999786
H     8.10999966  16.23999977  48.83999634
H     5.93999958  17.25000000  48.30999756
H     7.26999998  17.86999893  44.18000031
H    15.51000023  16.84999847  44.58000183
H     4.28000021  17.82999992  46.58000183
H     4.81999969  19.10000038  45.68000031
S    15.88000107  15.92000008  49.22000122
C    18.54999924  15.52999973  48.48999786
C    17.26000023  15.82999992  48.11000061
C    16.97999954  16.26000023  46.77000046
C    17.97000122  16.13000107  45.81999969
C    19.29000092  15.76000023  46.18999863
C    20.31999969  15.71000004  45.20999908
C    21.61000061  15.39999962  45.58000183
C    21.91999817  15.15999985  46.93999863
C    20.96999931  15.24000072  47.94000244
C    19.63000107  15.55999947  47.57999802
C    15.54999924  16.46000099  46.59999847
C    14.85000038  16.27000046  47.81999969
C    13.45999908  16.23999977  47.87000275
C    23.35000038  14.91000080  47.36999893
H    23.61241913  15.32845402  48.34166336
H    18.72999954  15.13000011  49.47999954
H    17.73999977  16.31999969  44.78000259
H    20.05000114  15.90999985  44.18000031
H    22.39999962  15.50000000  44.84000397
H    21.15999985  15.05000019  48.99000168
H    12.88000011  16.06999969  48.76999664
H    24.04000092  15.43000031  46.70000076
H    23.57999992  13.83999920  47.32999802
S    15.98999977  13.35000038  52.06999969
C    18.63999939  12.77999973  51.38999939
C    17.30999947  12.79999924  51.03000259
C    16.80999947  12.34000015  49.77000427
C    17.71999931  11.87999916  48.83999634
C    19.09000015  11.80999947  49.20000076
C    20.03000069  11.42000008  48.20000076
C    21.37000084  11.30000019  48.48999786
C    21.84000015  11.61000061  49.79000092
C    20.96999931  12.05999947  50.75000000
C    19.57999992  12.23000050  50.47999954
C    15.42000008  12.74000072  49.61000061
C    14.78000069  13.23999977  50.77000046
C    13.43999958  13.59000015  50.84000015
C    23.31999969  11.51999950  50.06999969
H    23.56849480  11.60519791  51.12787247
H    18.90999985  12.98999977  52.43000031
H    17.39999962  11.76000023  47.81000137
H    19.67000008  11.25000000  47.18999863
H    22.03000069  11.03999996  47.65999603
H    21.19999886  12.02999973  51.81000137
H    13.03999996  14.06999969  51.72000122
H    23.46999931  10.47999954  49.77000427
H    23.90999985  12.20000076  49.43999863
S    12.05000019  12.34000015  47.31999969
C     9.38000011  12.79000092  48.02999878
C    10.71000004  12.86999893  48.36000061
C    11.18000031  13.35000038  49.61999893
C    10.22999954  13.71999931  50.54999924
C     8.85999966  13.63000011  50.21999741
C     7.90000010  14.06000042  51.18999863
C     6.56000042  14.00000000  50.90999985
C     6.07999992  13.76999950  49.59000015
C     6.98000002  13.30000019  48.66000366
C     8.38000011  13.26000023  48.92000198
C    12.63000011  13.25000000  49.73999786
C    13.23999977  12.79999924  48.54999924
C    14.61999989  12.61000061  48.46000290
C     4.74000025  14.27000046  49.10999680
H     4.46199036  13.85654926  48.14052963
H     9.18000031  12.28999996  47.08000183
H    10.57999992  14.11999893  51.50000000
H     8.19000053  14.51000023  52.14000320
H     5.86999989  14.52999973  51.56999969
H     6.70000029  13.02999973  47.64999771
H    15.06000042  12.30000019  47.51999664
H     4.69000006  15.36999893  49.08000183
H     4.05999994  14.04000092  49.93999863
