96

S    12.13000107  16.73999977  44.23999786
C     9.51000023  17.19000053  45.00999832
C    10.77000046  16.77999878  45.38000107
C    11.06999969  16.35000038  46.70999908
C    10.00000000  16.36999893  47.60000229
C     8.67999935  16.70999908  47.23999786
C     7.59000015  16.64999962  48.15999985
C     6.32999992  16.97000122  47.70999908
C     6.03999996  17.46999931  46.42000198
C     7.07000017  17.43000031  45.50000000
C     8.39999962  17.14999962  45.90000153
C    12.48999977  16.06999969  46.81000137
C    13.19000053  16.26000023  45.59000015
C    14.56999969  16.26000023  45.52000046
C     4.61000013  17.78000069  46.04999924
H     4.31668472  17.51530075  45.03412628
H     9.30999947  17.50000000  43.97999573
H    10.21000004  15.95999908  48.57999802
H     7.85000038  16.34000015  49.16999817
H     5.52999973  16.84000015  48.43000031
H     6.81999969  17.59000015  44.45000076
H    15.07999992  16.29999924  44.55999756
H     3.84999990  17.35999870  46.72000122
H     4.51000023  18.86999893  46.18000031
S    15.67999935  15.40999985  49.27999878
C    18.38000107  15.26999950  48.55999756
C    17.07999992  15.48999977  48.18999863
C    16.75000000  15.77000046  46.81999969
C    17.75000000  16.02000046  45.90000153
C    19.11000061  15.78999996  46.25000000
C    20.15000153  15.92000008  45.30000305
C    21.38999939  15.43000031  45.65000153
C    21.73999977  14.94999981  46.93999863
C    20.76000023  15.01999950  47.90000153
C    19.40000153  15.31000042  47.57999802
C    15.31999969  15.98000050  46.66999817
C    14.63000107  15.81999969  47.90000153
C    13.25000000  15.90999985  47.97999954
C    23.19999886  14.67000008  47.25999832
H    23.46381378  15.01937485  48.25821686
H    18.61999893  14.94999981  49.56999969
H    17.53000069  16.40999985  44.91000366
H    19.93999863  16.39000130  44.34000015
H    22.06999969  15.34999943  44.80999756
H    21.04000092  14.88000011  48.94000244
H    12.74000072  15.65999985  48.90999603
H    23.85000038  15.08999920  46.47999573
H    23.36999893  13.60000038  47.11999893
S    11.51000023  17.10000038  50.94999695
C     8.90999985  17.71999931  51.86999893
C    10.19999981  17.31999969  52.11999893
C    10.48999977  16.82999992  53.43999863
C     9.48999977  16.64999962  54.38000107
C     8.15999985  16.98999977  54.05000305
C     7.13000011  16.82999992  55.01999664
C     5.84000015  17.19000053  54.68999863
C     5.51000023  17.78000069  53.43999863
C     6.51000023  18.05999947  52.54000092
C     7.85000038  17.64999962  52.80000305
C    11.92999935  16.61999893  53.47999954
C    12.64000034  16.77000046  52.27000427
C    14.02999973  16.68000031  52.19999695
C     4.09999990  18.23999977  53.18000031
H     3.79395437  17.57096863  52.37574005
H     8.61999989  18.02000046  50.86000061
H     9.63999939  16.29999924  55.40000153
H     7.40999985  16.63999939  56.04999924
H     5.18000031  17.35000038  55.54000092
H     6.42000008  18.55999947  51.58000183
H    14.60999966  16.64999962  51.27999878
H     3.35000014  18.11000061  53.96999741
H     4.13999987  19.30999947  52.95999908
S    14.98000050  15.77999973  55.93999863
C    17.63000107  15.11999989  55.33000183
C    16.45000076  15.72999954  54.94999695
C    16.15999985  16.14999962  53.61999893
C    17.20000076  16.23999977  52.70999908
C    18.45999908  15.72999954  53.09999847
C    19.52999878  15.98000050  52.18999863
C    20.82999992  15.72000027  52.56000137
C    21.07000160  15.10000038  53.81000137
C    20.03000069  14.75000000  54.64000320
C    18.68999863  15.14999962  54.38999939
C    14.77000046  16.53000069  53.37999725
C    14.00000000  16.29999924  54.54999924
C    12.61999989  16.34000015  54.66999817
C    22.49000168  14.81999969  54.27999878
H    22.81150818  15.21295547  55.24452972
H    17.85000038  14.75999928  56.32999802
H    17.05000114  16.64999962  51.70999908
H    19.27000046  16.57999992  51.31999969
H    21.70000076  15.98000050  51.95999908
H    20.29000092  14.19999981  55.54000092
H    12.02000046  16.05999947  55.52999878
H    23.06999969  15.29000092  53.47000122
H    22.67000008  13.76000023  54.45000076
