96

S    12.23000050  17.13000107  43.90999603
C     9.57999992  17.64000130  44.75999832
C    10.85000038  17.17000008  45.01999664
C    11.28999901  16.76000023  46.31999969
C    10.32999992  16.77000046  47.31999969
C     9.00000000  17.18000031  47.09999847
C     7.96999979  17.20999908  48.08000183
C     6.71999979  17.76000023  47.90000153
C     6.44000006  18.30999947  46.62000275
C     7.32999992  18.22999954  45.56999969
C     8.61999989  17.68000031  45.79999924
C    12.74000072  16.76000023  46.47999573
C    13.38999939  16.87000084  45.21999741
C    14.78000069  16.86000061  45.19000244
C     5.03999996  18.75000000  46.25999832
H     4.67722368  18.06712723  45.49176788
H     9.30999947  18.09000015  43.81000137
H    10.57000065  16.35000038  48.29000092
H     8.22000027  16.72000122  49.01000214
H     5.95000029  17.65999985  48.67000198
H     7.11000013  18.71999931  44.61999893
H    15.25000000  16.98999977  44.22000122
H     4.33999968  18.67000008  47.11000061
H     4.94000006  19.78999901  45.93999863
S    16.00000000  16.01000023  48.83999634
C    18.63000107  15.50000000  48.09000015
C    17.40999985  16.03999901  47.76000214
C    17.00000000  16.32999992  46.42000198
C    17.97000122  16.35000038  45.43000031
C    19.29999924  15.95999908  45.72000122
C    20.20999908  15.81999969  44.64000320
C    21.45000076  15.31000042  44.93999863
C    21.84999847  15.05000019  46.27999878
C    20.94000053  15.11000061  47.30999756
C    19.62000084  15.57000065  47.06999969
C    15.57000065  16.59000015  46.31000137
C    14.86999989  16.38000107  47.52999878
C    13.48999977  16.48999977  47.63000107
C    23.29999924  14.73999977  46.58000183
H    23.54862022  15.19462013  47.53896332
H    18.86999893  14.89999962  48.96999741
H    17.69000053  16.54999924  44.40000153
H    19.85000038  16.28000069  43.72000122
H    22.07999992  15.29999924  44.06000137
H    21.27000046  14.73999977  48.27999878
H    13.05999947  16.21000099  48.59000397
H    23.81000137  15.19999981  45.72000122
H    23.44000053  13.64999962  46.58000183
S    16.21000099  13.64999962  51.66999817
C    18.81000137  13.01000023  50.90000153
C    17.46000099  12.90999985  50.65999985
C    16.90999985  12.30000019  49.48999786
C    17.82999992  11.82000065  48.56999969
C    19.22000122  11.89000034  48.79000092
C    20.13000107  11.32999992  47.84999847
C    21.45000076  11.11999989  48.18000031
C    21.97000122  11.61000061  49.40000153
C    21.12999916  12.20999908  50.31000137
C    19.73999977  12.34000015  50.06000137
C    15.44999981  12.28999996  49.51000214
C    14.93999958  13.02999973  50.59999847
C    13.60000038  13.36999989  50.70000076
C    23.43000031  11.31000042  49.69999695
H    23.72794533  11.60085201  50.70733643
H    19.19999886  13.57999992  51.73999786
H    17.47999954  11.36000061  47.64999771
H    19.80999947  11.13000011  46.83000183
H    22.09000015  10.62000084  47.45999908
H    21.53000069  12.53999901  51.26999664
H    13.22000027  14.01000023  51.49000168
H    23.71999931  10.26000023  49.68000031
H    24.04000092  11.77000046  48.90999603
S    12.13999939  12.15000057  47.18999863
C     9.50000000  12.88000011  47.90000153
C    10.84000015  12.81000042  48.20999908
C    11.35000038  13.25000000  49.47000122
C    10.47999954  13.71999931  50.44000244
C     9.13000011  13.94999981  50.08999634
C     8.21000004  14.40000057  51.09000397
C     6.90000010  14.63999939  50.77999878
C     6.37000036  14.19000053  49.54000092
C     7.21000004  13.57999992  48.63999939
C     8.61999989  13.50999928  48.81999969
C    12.77999973  12.98999977  49.62999725
C    13.32999992  12.35000038  48.48999786
C    14.67000008  12.02000046  48.37999725
C     4.92999983  14.51000023  49.18000031
H     4.68125868  14.20440388  48.16371536
H     9.15999985  12.35000038  47.02000046
H    10.92000008  14.07999992  51.36000061
H     8.53999996  14.63000107  52.09999847
H     6.25000000  15.18000031  51.46999741
H     6.80999994  13.36999989  47.64999771
H    15.08999920  11.64999962  47.44999695
H     4.79999971  15.59000015  49.26000214
H     4.26000023  14.00000000  49.88999939
