96

S    11.69999981  16.40999985  44.55999756
C     9.11999989  17.07999992  45.50000000
C    10.34999943  16.50000000  45.70999908
C    10.69000053  16.13999939  47.04999924
C     9.75000000  16.17000008  48.06000137
C     8.43000031  16.57999992  47.77999878
C     7.40000010  16.46000099  48.75000000
C     6.10000038  16.75000000  48.39000320
C     5.78000021  17.30999947  47.12999725
C     6.76999998  17.53000069  46.19999695
C     8.10999966  17.13000107  46.47999573
C    12.13000107  15.95000076  47.15000153
C    12.79999924  16.01000023  45.89000320
C    14.18000031  16.03000069  45.72000122
C     4.32000017  17.50000000  46.79000092
H     3.99938488  16.83027077  45.99202347
H     8.75000000  17.43000031  44.52999878
H     9.96999931  15.92000008  49.09999847
H     7.50999975  15.81999969  49.61999893
H     5.32000017  16.44000053  49.08000183
H     6.61999989  18.02000046  45.24000168
H    14.55000019  15.97000027  44.71000290
H     3.61000013  17.53999901  47.63000107
H     4.44999981  18.52000046  46.40999603
S    15.51000023  15.73999977  49.45000076
C    18.15000153  15.36999893  48.72000122
C    16.90000153  15.81999969  48.36000061
C    16.47999954  16.07999992  47.02000046
C    17.46999931  16.09000015  46.04999924
C    18.81000137  15.88000107  46.43000031
C    19.93000031  15.77999973  45.54999924
C    21.21999931  15.42000008  45.84999847
C    21.55999947  15.00000000  47.15999985
C    20.51000214  15.01999950  48.04999924
C    19.18000031  15.44999981  47.75000000
C    15.03999901  16.03999901  46.83000183
C    14.39000034  15.82999992  48.08000183
C    13.01000023  15.77999973  48.22999954
C    22.95999908  14.68000031  47.62000275
H    23.23021698  15.13510323  48.57287216
H    18.27999878  14.73000050  49.59000015
H    17.27000046  16.13999939  44.98000336
H    19.81999969  15.88999939  44.47000122
H    21.98999786  15.44999981  45.07999802
H    20.69000053  14.73000050  49.08000183
H    12.76000023  15.77000046  49.27999878
H    23.69999886  14.93999958  46.84999847
H    22.95999908  13.57999992  47.69000244
S    12.07999992  17.12000084  51.55000305
C     9.36999989  17.43999863  52.21000290
C    10.65000057  17.10000038  52.58999634
C    11.03000069  16.60000038  53.88000107
C    10.00000000  16.39000130  54.77000427
C     8.71999931  16.90000153  54.43000031
C     7.65999985  16.97000122  55.38000107
C     6.35999966  17.35000038  55.15999603
C     6.02999973  17.68000031  53.81999969
C     6.98999977  17.81999969  52.84000015
C     8.31999969  17.43000031  53.15999985
C    12.46999931  16.54999924  54.10999680
C    13.17000008  16.70999908  52.88999939
C    14.55999947  16.72999954  52.78999710
C     4.55999994  17.81999969  53.47999954
H     4.24164152  17.30355263  52.57444382
H     9.11999989  17.82999992  51.23000336
H    10.06000042  15.85999966  55.72000122
H     7.88999987  16.68000031  56.39999771
H     5.72000027  17.18000031  56.02000427
H     6.65999985  18.25000000  51.90000153
H    15.08999920  16.95999908  51.86999893
H     4.00999975  17.35000038  54.29999924
H     4.39000034  18.89999962  53.37999725
S    15.72999954  15.77999973  56.45000076
C    18.35000038  15.43000031  55.65999985
C    17.11000061  15.93000031  55.33000183
C    16.72000122  16.52000046  54.09000015
C    17.70000076  16.65999985  53.11999893
C    19.03000069  16.31000137  53.41999817
C    20.00000000  16.29999924  52.37999725
C    21.22999954  15.72000027  52.56999969
C    21.57999992  15.19999981  53.83999634
C    20.63999939  15.10000038  54.84000397
C    19.30999947  15.59000015  54.64000320
C    15.26999950  16.59000015  53.97999573
C    14.59000015  16.26000023  55.18000031
C    13.20000076  16.28999901  55.27000046
C    22.98000145  14.65000057  54.03999710
H    23.47898102  15.29867363  54.75995636
H    18.55999947  14.80000019  56.52000046
H    17.35999870  16.75000000  52.09000015
H    19.65999985  16.69000053  51.43000031
H    21.87999916  15.46000004  51.73999786
H    20.88999939  14.63000107  55.77999878
H    12.63000011  15.92000008  56.11999893
H    23.64999962  14.73999977  53.18000031
H    22.93000031  13.64999962  54.47999954
