96

S    12.31999969  16.79000092  43.96999741
C     9.59000015  17.10000038  44.64000320
C    10.85999966  16.70999908  44.98000336
C    11.21000099  16.25000000  46.29000092
C    10.21999931  16.11999893  47.25000000
C     8.90999985  16.54000092  46.95999908
C     7.85000038  16.56999969  47.91999817
C     6.60000038  17.04000092  47.62000275
C     6.26999950  17.43000031  46.29000092
C     7.26999998  17.46000099  45.34999847
C     8.59000015  17.02999878  45.65000153
C    12.64000034  16.29999924  46.53999710
C    13.40000057  16.54000092  45.35999680
C    14.78999996  16.56999969  45.31999969
C     4.86999989  17.86000061  45.90000153
H     4.46500206  17.19210815  45.13973999
H     9.38000011  17.60000038  43.68999863
H    10.47999954  15.67999935  48.20999908
H     8.10999966  16.21999931  48.92000198
H     5.89999962  17.06999969  48.44999695
H     7.00000000  17.85000038  44.36999893
H    15.39999962  16.76000023  44.45000076
H     4.26000023  17.86000061  46.81000137
H     4.92999983  18.90999985  45.58000183
S    15.72999954  15.38000011  48.97999573
C    18.39999962  14.88999939  48.27999878
C    17.18000031  15.44999981  47.95999908
C    16.86000061  15.93000031  46.65000153
C    17.81999969  15.85000038  45.65999985
C    19.11999893  15.36000061  45.91999817
C    20.17000008  15.51000023  44.97000122
C    21.45000076  15.11000061  45.30000305
C    21.73999977  14.70999908  46.63000107
C    20.72000122  14.52999973  47.52999878
C    19.36000061  14.82999992  47.23999786
C    15.44999981  16.27000046  46.52000046
C    14.70000076  16.05999947  47.70000076
C    13.31999969  16.05999947  47.74000168
C    23.12999916  14.28999996  47.04999924
H    23.57555962  14.78506851  47.91283417
H    18.59000015  14.50000000  49.27999878
H    17.56000137  16.26000023  44.68999863
H    19.96999931  16.11999893  44.09000015
H    22.26000023  15.24000072  44.59999847
H    21.02000046  14.18000031  48.52000427
H    12.86000061  15.69000053  48.66000366
H    23.82999802  14.26000023  46.20999908
H    23.15000153  13.22000027  47.29000092
S    12.02000046  16.57999992  51.00000000
C     9.35000038  16.84000015  51.65000153
C    10.62999916  16.61000061  52.09999847
C    11.03000069  16.38000107  53.46000290
C    10.03999901  16.47999954  54.40999985
C     8.71999931  16.80999947  54.02000046
C     7.59999990  16.63999939  54.87999725
C     6.34000015  17.13000107  54.62999725
C     6.05000019  17.60000038  53.31999969
C     7.03999996  17.46999931  52.37999725
C     8.39999962  17.14999962  52.65999603
C    12.46999931  16.18000031  53.54000092
C    13.17999935  16.36000061  52.31999969
C    14.56999969  16.32999992  52.22999954
C     4.59000015  17.86000061  53.02999878
H     4.32674217  17.50424576  52.03388977
H     9.15999985  17.02999878  50.59999847
H    10.15999985  16.31999969  55.47999954
H     7.83999968  16.06999969  55.76000214
H     5.51000023  17.09000015  55.33000183
H     6.89000034  17.75000000  51.33999634
H    15.00000000  16.60000038  51.26999664
H     3.79999995  17.42000008  53.66000366
H     4.53999996  18.92000008  53.33000183
S    15.84000015  15.93999958  55.96000290
C    18.52000046  15.65999985  55.07999802
C    17.18000031  15.84000015  54.80999756
C    16.79999924  16.14999962  53.46000290
C    17.68000031  16.28000069  52.39999771
C    19.03000069  15.98999977  52.68000031
C    20.05000114  15.93999958  51.69000244
C    21.31999969  15.51000023  51.95000076
C    21.75000000  15.26000023  53.27999878
C    20.82999992  15.39999962  54.29999924
C    19.47000122  15.71000004  54.02999878
C    15.34000015  16.17000008  53.39000320
C    14.67000008  16.10000038  54.62999725
C    13.27999973  16.00000000  54.65999985
C    23.15999985  14.91000080  53.69999695
H    23.32356262  15.32246208  54.69559860
H    18.85000038  15.31999969  56.04999924
H    17.35000038  16.57999992  51.40999603
H    19.73999977  16.18000031  50.66999817
H    22.11999893  15.44000053  51.22000122
H    21.04999924  15.11000061  55.31999969
H    12.72999954  15.78999996  55.58000183
H    23.88000107  15.47999954  53.09000015
H    23.44000053  13.85000038  53.74000168
