96

S    12.13999939  16.50000000  44.31000137
C     9.50000000  16.80999947  45.13000107
C    10.76000023  16.31999969  45.40999985
C    11.16000080  16.01000023  46.75000000
C    10.24000072  15.93000031  47.77999878
C     8.94999981  16.46000099  47.50999832
C     7.88999987  16.53000069  48.46000290
C     6.61999989  16.97000122  48.18999863
C     6.28000021  17.45000076  46.90000153
C     7.36000013  17.64000130  46.05999756
C     8.64000034  17.05000114  46.23000336
C    12.61000061  16.03999901  46.90999985
C    13.25000000  16.20000076  45.65000153
C    14.61999989  16.40999985  45.59000015
C     4.84000015  17.72999954  46.56000137
H     4.54164362  17.26115417  45.62231064
H     9.21000004  17.20999908  44.15999985
H    10.50000000  15.44000053  48.70999908
H     8.07999992  16.06999969  49.41999817
H     5.75000000  16.86000061  48.82999802
H     7.16000032  18.02999878  45.06999969
H    15.19000053  16.63999939  44.68999863
H     4.30000019  17.20999908  47.36000061
H     4.67000008  18.81000137  46.59000015
S    15.90999985  15.62999916  49.31000137
C    18.55999947  15.32999992  48.50999832
C    17.28000069  15.72000027  48.18000031
C    16.80999947  16.10000038  46.88000107
C    17.77000046  16.13999939  45.89000320
C    19.12999916  15.85999966  46.18999863
C    20.09000015  15.88000107  45.14999771
C    21.40999985  15.57000065  45.38000107
C    21.81999969  15.11999989  46.65999985
C    20.89999962  15.06999969  47.69000244
C    19.52999878  15.36000061  47.48000336
C    15.36000061  16.21000099  46.76000214
C    14.73999977  15.88000107  48.00000000
C    13.35999966  15.84000015  48.06999969
C    23.22999954  14.78999996  47.06999969
H    23.47111893  15.13040066  48.07701874
H    18.97999954  15.13000011  49.50000000
H    17.46999931  16.54999924  44.93000031
H    19.82999992  16.22999954  44.15000153
H    22.01000023  15.44999981  44.47999954
H    21.17000198  14.63000107  48.64999771
H    12.94999981  15.64000034  49.06000137
H    23.94000053  15.08999920  46.29000092
H    23.19999886  13.69999981  47.11000061
S    16.01000023  12.64000034  52.35000229
C    18.64999962  12.27000046  51.52999878
C    17.31999969  12.36999989  51.18000031
C    16.82999992  12.10999966  49.86000061
C    17.73999977  11.84999943  48.86000061
C    19.11999893  11.69999981  49.13999939
C    20.12000084  11.42000008  48.15999985
C    21.45000076  11.35000038  48.52000427
C    21.84999847  11.68000031  49.84000397
C    20.94000053  12.06999969  50.79000092
C    19.55999947  11.98999977  50.47999954
C    15.36999893  12.17000008  49.80999756
C    14.78999996  12.53000069  51.05999756
C    13.43000031  12.74000072  51.20999908
C    23.29000092  11.28000069  50.08999634
H    23.64651299  11.72920704  51.01693344
H    18.89999962  12.44999981  52.56999969
H    17.38999939  11.51999950  47.88999939
H    19.82999992  11.17000008  47.14000320
H    22.13000107  10.97000027  47.76000214
H    21.11000061  12.17000008  51.86000061
H    12.90999985  13.17999935  52.05999756
H    23.36999893  10.19999981  50.25000000
H    23.97000122  11.57999992  49.27999878
S    11.90999985  12.02000046  47.60000229
C     9.26999950  12.55000019  48.43000031
C    10.62000084  12.53000069  48.70999908
C    11.18000031  12.94000053  49.95999908
C    10.31000042  13.50999928  50.87999725
C     8.90999985  13.50999928  50.68000031
C     8.00000000  14.07999992  51.62000275
C     6.65999985  14.25000000  51.35000229
C     6.15000010  13.89999962  50.06999969
C     7.00999975  13.27999973  49.20000076
C     8.38999939  13.02000046  49.43999863
C    12.58999920  12.60000038  50.10000229
C    13.15000057  12.18000031  48.86000061
C    14.51000023  11.92999935  48.74000168
C     4.69000006  14.11000061  49.72999954
H     4.44769478  13.72516251  48.73939896
H     8.85999966  12.35000038  47.44999695
H    10.67000008  13.88000011  51.84000015
H     8.42000008  14.51000023  52.51999664
H     6.05999994  14.91000080  51.95999908
H     6.71000004  12.96000004  48.20000076
H    14.93000031  11.77000046  47.76000214
H     4.53999996  15.19000053  49.84000397
H     4.05000019  13.57999992  50.45000076
