96

S    12.32999992  16.61999893  44.15999985
C     9.72999954  17.34000015  45.08999634
C    10.98999977  16.82999992  45.30000305
C    11.33999920  16.40999985  46.62000275
C    10.42000008  16.32999992  47.64999771
C     9.11000061  16.81999969  47.44999695
C     8.06999969  16.57999992  48.39000320
C     6.77999973  17.01000023  48.15000153
C     6.48000002  17.72999954  46.95999908
C     7.49000025  17.92000008  46.04999924
C     8.82999992  17.43999863  46.18000031
C    12.79000092  16.31999969  46.77999878
C    13.43999958  16.36999893  45.52000046
C    14.81999969  16.46999931  45.43000031
C     5.05000019  18.06999969  46.59999847
H     4.70818424  17.60712433  45.67425156
H     9.44000053  17.64999962  44.08000183
H    10.67000008  15.77000046  48.54999924
H     8.23000050  16.11999893  49.36000061
H     6.03999996  16.81999969  48.92000198
H     7.11999989  18.35000038  45.12000275
H    15.25000000  16.63999939  44.43999863
H     4.36999989  17.71999931  47.38999939
H     4.90000010  19.13999939  46.38000107
S    16.00000000  15.80000019  49.15999985
C    18.61999893  15.17000008  48.29000092
C    17.35999870  15.65999985  48.04000092
C    17.05999947  16.17000008  46.72999954
C    18.00000000  16.31000137  45.72999954
C    19.31999969  15.86999989  46.00999832
C    20.36000061  15.90000057  45.02999878
C    21.61999893  15.53999996  45.43000031
C    21.94000053  15.13000011  46.76000214
C    20.94000053  14.93000031  47.68000031
C    19.63000107  15.31999969  47.29999924
C    15.60999966  16.27000046  46.56000137
C    14.93999958  16.27000046  47.81000137
C    13.55999947  16.28999901  47.95000076
C    23.38999939  14.80000019  47.04000092
H    23.58227921  15.03500843  48.08685303
H    18.78999901  14.63000107  49.22000122
H    17.68000031  16.70999908  44.78000259
H    20.13000107  16.44000053  44.12000275
H    22.39000130  15.53999996  44.65999985
H    21.09000015  14.52999973  48.68000031
H    13.12000084  16.38000107  48.94000244
H    24.13000107  15.21000004  46.32999802
H    23.45000076  13.71000099  47.02000046
S    11.26999950  17.00000000  51.22000122
C     8.60999966  17.64999962  51.97999954
C     9.86999989  17.17000008  52.29000092
C    10.22999954  16.79000092  53.62999725
C     9.26999950  16.80999947  54.61000061
C     7.92999983  17.18000031  54.31999969
C     6.86999989  17.07999992  55.27000046
C     5.56999969  17.29999924  54.91000366
C     5.23999977  17.69000053  53.57999802
C     6.23000050  17.71999931  52.63000107
C     7.59999990  17.56000137  52.97000122
C    11.64999962  16.51000023  53.81999969
C    12.34000015  16.64999962  52.58999634
C    13.73000050  16.68000031  52.50000000
C     3.81999993  18.07999992  53.25000000
H     3.64119482  17.93695450  52.18432236
H     8.30999947  18.09000015  51.04000092
H     9.48999977  16.64999962  55.66999817
H     7.09000015  16.65999985  56.25000000
H     4.80999994  17.04000092  55.63999939
H     6.01999998  18.07999992  51.62000275
H    14.14999962  16.76000023  51.51000214
H     3.07000017  17.56999969  53.87000275
H     3.63000011  19.14999962  53.43999863
S    14.98000050  16.00000000  56.19999695
C    17.64000130  15.81999969  55.31999969
C    16.34000015  16.17000008  55.06999969
C    15.92000008  16.54999924  53.75000000
C    16.84999847  16.53000069  52.72999573
C    18.13999939  15.97000027  52.90000153
C    19.14999962  15.85000038  51.90000153
C    20.45000076  15.47000027  52.11999893
C    20.79999924  15.06999969  53.43999863
C    19.92000008  15.36000061  54.45999908
C    18.59000015  15.82999992  54.26000214
C    14.46000004  16.56999969  53.68999863
C    13.78999901  16.35000038  54.92000198
C    12.41000080  16.35000038  54.99000168
C    22.19000053  14.57999992  53.77999878
H    22.48131561  14.95657825  54.76052094
H    17.88999939  15.36999893  56.26999664
H    16.56999969  16.72999954  51.70000076
H    18.76000023  16.14999962  50.93000031
H    21.19999886  15.44999981  51.32999802
H    20.10000038  15.13000011  55.50000000
H    11.90999985  16.27000046  55.94999695
H    22.95999908  14.98000050  53.11000061
H    22.26000023  13.48000050  53.76999664
