96

S    12.23999977  16.82999992  44.15000153
C     9.53999996  17.27000046  44.86000061
C    10.80999947  16.87999916  45.20000076
C    11.14999962  16.46000099  46.52000046
C    10.13000011  16.44000053  47.45999908
C     8.85999966  16.95999908  47.14000320
C     7.82999992  16.87999916  48.13000107
C     6.52999973  17.17000008  47.78999710
C     6.21000004  17.79000092  46.56000137
C     7.17999983  17.89999962  45.59999847
C     8.50000000  17.40999985  45.81999969
C    12.58999920  16.34000015  46.66999817
C    13.35000038  16.67000008  45.52000046
C    14.73999977  16.67000008  45.47000122
C     4.76000023  18.04000092  46.20999908
H     4.38903522  17.47641945  45.35392761
H     9.36999989  17.51000023  43.81000137
H    10.21999931  16.00000000  48.44999695
H     8.07999992  16.47999954  49.10999680
H     5.82999992  17.09000015  48.61999893
H     6.94999981  18.34000015  44.62999725
H    15.24000072  16.72999954  44.51000214
H     4.01999998  17.80999947  46.97999954
H     4.72000027  19.11999893  45.97999954
S    15.62999916  15.57000065  49.16999817
C    18.32999992  15.07999992  48.60000229
C    17.09000015  15.50000000  48.16999817
C    16.82999992  16.04999924  46.86999893
C    17.86999893  16.11999893  45.96000290
C    19.11000061  15.55999947  46.31999969
C    20.17999840  15.50000000  45.38000107
C    21.45000076  15.11999989  45.75000000
C    21.70000076  14.75999928  47.09999847
C    20.68000031  14.61999989  48.01000214
C    19.37999916  15.03999901  47.63999939
C    15.43000031  16.39999962  46.65999985
C    14.65999985  16.21999931  47.84000015
C    13.27999973  16.05999947  47.85999680
C    23.11000061  14.50000000  47.56999969
H    23.27969551  14.88888359  48.57402802
H    18.40999985  14.80999947  49.65000153
H    17.64000130  16.46000099  44.94999695
H    20.00000000  16.06999969  44.47999954
H    22.29000092  15.19000053  45.06000137
H    20.78000069  14.37000084  49.06999969
H    12.69999981  15.76000023  48.73000336
H    23.92999840  14.88999939  46.95000076
H    23.26000023  13.42000008  47.60000229
S    11.77999973  17.06999969  50.94999695
C     9.15000057  17.69000053  51.59999847
C    10.36000061  17.18000031  52.01000214
C    10.72999954  16.77999878  53.34000015
C     9.72000027  16.84999847  54.27999878
C     8.47999954  17.40999985  53.89999771
C     7.44000006  17.46000099  54.87999725
C     6.12999964  17.75000000  54.59000015
C     5.75999975  18.07999992  53.26000214
C     6.74000025  18.06999969  52.29000092
C     8.10000038  17.75000000  52.56000137
C    12.15999985  16.62999916  53.54999924
C    12.86000061  16.77999878  52.32999802
C    14.23999977  16.67000008  52.25999832
C     4.40000010  18.63000107  52.90000153
H     3.93024588  17.98230743  52.15978241
H     9.06000042  18.15999985  50.63000107
H     9.81999969  16.39000130  55.26000214
H     7.59999990  16.87999916  55.79000092
H     5.40000010  17.75000000  55.40000153
H     6.40999985  18.27999878  51.26999664
H    14.67000008  16.81999969  51.26999664
H     3.86000013  18.68999863  53.86000061
H     4.56999969  19.64999962  52.54000092
S    15.31000042  16.35000038  56.11000061
C    17.93000031  15.71000004  55.44000244
C    16.69000053  16.13999939  55.00999832
C    16.39999962  16.34000015  53.62999725
C    17.45000076  16.28000069  52.74000168
C    18.76000023  15.95999908  53.18000031
C    19.73999977  15.57999992  52.22000122
C    20.98999977  15.18000031  52.63000107
C    21.35999870  15.26000023  54.00000000
C    20.38999939  15.50000000  54.94999695
C    19.04000092  15.72999954  54.56999969
C    14.96000099  16.44000053  53.43999863
C    14.27000046  16.48999977  54.68000031
C    12.88000011  16.44000053  54.73999786
C    22.72000122  14.78000069  54.45000076
H    22.96100616  15.21239281  55.42111206
H    18.13999939  15.57000065  56.50000000
H    17.19000053  16.22999954  51.68000031
H    19.42000008  15.60999966  51.18999863
H    21.73999977  14.88999939  51.90000153
H    20.52999878  15.14999962  55.97000122
H    12.44999981  16.21999931  55.70999908
H    23.40999985  15.08999920  53.66000366
H    22.65999985  13.68000031  54.45999908
