96

S    12.22000027  17.51000023  44.36999893
C     9.52000046  17.90999985  45.14999771
C    10.80999947  17.54999924  45.45000076
C    11.14999962  16.84000015  46.63999939
C    10.15999985  16.73999977  47.61000061
C     8.82000065  17.12000084  47.34000397
C     7.76000023  16.90000153  48.26000214
C     6.48000002  17.20999908  47.85999680
C     6.17000008  18.00000000  46.70999908
C     7.18999958  18.31999969  45.84999847
C     8.47999954  17.78000069  46.11000061
C    12.57999992  16.61000061  46.77000046
C    13.34000015  16.94000053  45.61999893
C    14.73000050  17.06999969  45.56999969
C     4.76999998  18.35000038  46.25999832
H     4.45626831  17.72253609  45.42575455
H     9.35999966  18.39999962  44.19000244
H    10.36000061  16.32999992  48.59000397
H     7.96999979  16.54000092  49.26000214
H     5.64000034  16.82999992  48.43999863
H     6.98000002  18.77000046  44.87999725
H    15.19000053  17.35999870  44.62999725
H     3.98999977  18.15999985  47.02000046
H     4.63000011  19.43000031  46.19999695
S    15.80999947  15.51000023  49.06999969
C    18.51000023  15.57999992  48.47999954
C    17.22999954  15.81999969  48.04999924
C    16.87999916  16.42000008  46.79999924
C    17.89999962  16.62999916  45.89000320
C    19.19000053  16.14999962  46.20999908
C    20.23999977  16.21000099  45.24000168
C    21.45000076  15.62999916  45.54000092
C    21.75000000  15.10000038  46.83000183
C    20.79999924  15.05000019  47.81999969
C    19.55000114  15.65000057  47.50999832
C    15.44000053  16.57999992  46.66999817
C    14.72000027  16.03999901  47.77000046
C    13.32999992  16.06999969  47.81999969
C    23.15000153  14.65000057  47.14000320
H    23.33413124  15.09616280  48.11731339
H    18.73999977  15.15999985  49.45999908
H    17.71999931  17.12000084  44.93000031
H    20.06000137  16.48999977  44.20999908
H    22.29999924  15.55999947  44.86999893
H    21.04999924  14.80999947  48.85000229
H    12.86000061  15.80000019  48.75999832
H    23.88999939  15.01000023  46.40999603
H    23.12999916  13.55000019  47.18000031
S    16.36000061  13.07000065  52.55000305
C    19.03000069  12.53000069  51.73999786
C    17.67000008  12.51000023  51.51000214
C    17.15999985  12.17000008  50.21999741
C    18.04000092  11.84999943  49.20999908
C    19.44000053  11.77000046  49.40999985
C    20.43999863  11.46999931  48.43999863
C    21.78999901  11.47999954  48.73000336
C    22.22999954  11.65999985  50.06999969
C    21.32999802  12.11999989  50.98999786
C    19.93000031  12.15999985  50.70999908
C    15.72000027  12.30999947  50.06999969
C    15.15999985  12.79000092  51.27999878
C    13.89999962  13.38000107  51.37000275
C    23.65999985  11.26999950  50.38000107
H    23.91658020  11.42679977  51.42770386
H    19.38999939  12.94999981  52.67000198
H    17.63000107  11.59999943  48.22999954
H    20.20999908  11.17000008  47.43000031
H    22.52000046  11.28000069  47.95000076
H    21.61999893  12.28000069  52.02999878
H    13.48000050  13.83999920  52.25999832
H    23.85000038  10.22999954  50.07999802
H    24.34999847  11.84999943  49.73999786
S    12.39999962  12.64999962  47.76000214
C     9.75000000  13.09999943  48.54999924
C    11.10000038  13.15000057  48.85000229
C    11.63000011  13.45000076  50.14999771
C    10.77999973  14.00000000  51.10000229
C     9.39000034  13.86000061  50.87999725
C     8.40999985  14.11000061  51.88000107
C     7.05999947  14.11999893  51.62000275
C     6.58999968  13.93000031  50.28999710
C     7.48000050  13.48000050  49.34000015
C     8.86999989  13.43000031  49.61000061
C    13.04999924  13.17000008  50.27999878
C    13.56999969  12.61000061  49.09000015
C    14.88999939  12.20000076  48.94000244
C     5.09999990  13.96999931  49.99000168
H     4.93613338  13.78476048  48.92842865
H     9.36999989  12.86999893  47.56000137
H    11.21000099  14.25000000  52.05999756
H     8.75000000  14.61999989  52.77999878
H     6.50000000  14.63999939  52.38999939
H     7.13999987  13.34000015  48.31999969
H    15.36999893  11.92000008  48.01000214
H     4.73000002  14.93000031  50.37000275
H     4.65000010  13.14000034  50.54999924
