96

S    12.07999992  17.26000023  44.45000076
C     9.47000027  17.79000092  45.28999710
C    10.67000008  17.17000008  45.52999878
C    11.05999947  16.77000046  46.84999847
C    10.06000042  16.76000023  47.81000137
C     8.76999950  17.27000046  47.56000137
C     7.68000031  17.17000008  48.47999954
C     6.40999985  17.59000015  48.15999985
C     6.11999989  18.13999939  46.88000107
C     7.16000032  18.32999992  45.98999786
C     8.47000027  17.86000061  46.29000092
C    12.51000023  16.80999947  46.98999786
C    13.22000027  17.09000015  45.79999924
C    14.60999966  17.13000107  45.72999954
C     4.72000027  18.53999901  46.46999741
H     4.44975948  18.05641174  45.53126907
H     9.23999977  18.22000122  44.31000137
H    10.36999893  16.31000137  48.75999832
H     7.76000023  16.57999992  49.38999939
H     5.65000010  17.54999924  48.93000031
H     7.02000046  18.79999924  45.01999664
H    15.03000069  17.18000031  44.72999954
H     4.01999998  18.23999977  47.25999832
H     4.65000010  19.61000061  46.26999664
S    15.77000046  16.10000038  49.38000107
C    18.43000031  15.82999992  48.64999771
C    17.15999985  16.21999931  48.27999878
C    16.80999947  16.77999878  47.01000214
C    17.84000015  16.87000084  46.09000397
C    19.11999893  16.31999969  46.33999634
C    20.10999870  16.23999977  45.31999969
C    21.35999870  15.75000000  45.59999847
C    21.68000031  15.22999954  46.88999939
C    20.71000099  15.24000072  47.87000275
C    19.45000076  15.85999966  47.65999603
C    15.38000011  17.00000000  46.88999939
C    14.68999958  16.61999893  48.06999969
C    13.30999947  16.52000046  48.09999847
C    23.06999969  14.84000015  47.31999969
H    23.38250542  15.40108776  48.20069504
H    18.68000031  15.32999992  49.58000183
H    17.61999893  17.14999962  45.06999969
H    19.85000038  16.46000099  44.29000092
H    22.04999924  15.80999947  44.75999832
H    21.07999992  15.05000019  48.87000275
H    12.84000015  16.26000023  49.05000305
H    23.67000198  15.06999969  46.43000031
H    22.98999977  13.76000023  47.49000168
S    11.75000000  17.35000038  51.25999832
C     9.06000042  17.84000015  51.93999863
C    10.29999924  17.35000038  52.27000427
C    10.62000084  17.05000114  53.63999939
C     9.68000031  16.98999977  54.65000153
C     8.36999989  17.40999985  54.31000137
C     7.36000013  17.52000046  55.30000305
C     6.10000038  17.90999985  54.88999939
C     5.79999971  18.22000122  53.54000092
C     6.74000025  18.06999969  52.55000305
C     8.05999947  17.71999931  52.94000244
C    12.05000019  16.81999969  53.80000305
C    12.82999992  17.00000000  52.62000275
C    14.22000027  16.93000031  52.56000137
C     4.42999983  18.72999954  53.13999939
H     4.07457924  17.99783325  52.41493988
H     8.89000034  18.19000053  50.93000031
H     9.94999981  16.77000046  55.68000031
H     7.64999962  17.13000107  56.26999664
H     5.31000042  18.13999939  55.59999847
H     6.57000017  18.53000069  51.58000183
H    14.78000069  17.25000000  51.69000244
H     3.73000002  18.85000038  53.96999741
H     4.65999985  19.70999908  52.71999741
S    15.08999920  16.00000000  56.37000275
C    17.75000000  15.52999973  55.73999786
C    16.52000046  15.95999908  55.31000137
C    16.31000137  16.45000076  53.97999573
C    17.35999870  16.54000092  53.09000015
C    18.64999962  16.13000107  53.52000427
C    19.77000046  16.39999962  52.67000198
C    21.02999878  16.03000069  53.06000137
C    21.21999931  15.36999893  54.29999924
C    20.15999985  15.14999962  55.14999771
C    18.85000038  15.60999966  54.84000397
C    14.88999939  16.63999939  53.75999832
C    14.13000011  16.43000031  54.93999863
C    12.74000072  16.52000046  54.98000336
C    22.60000038  14.88999939  54.65999985
H    23.03449249  15.45270157  55.48624420
H    17.86999893  14.88999939  56.60999680
H    17.27000046  16.77999878  52.02999878
H    19.56999969  16.82999992  51.70000076
H    21.78999901  16.20000076  52.29999924
H    20.29999924  14.65000057  56.11000061
H    12.18999958  16.39000130  55.90000153
H    23.15999985  15.01000023  53.72000122
H    22.72000122  13.81000042  54.80999756
