96

S    12.50000000  16.80999947  44.29999924
C     9.89000034  17.19000053  45.00000000
C    11.10000038  16.63999939  45.37000275
C    11.39000034  16.20000076  46.70000076
C    10.36000061  16.14999962  47.62000275
C     9.06999969  16.61000061  47.25999832
C     8.01999950  16.65999985  48.22000122
C     6.84999990  17.28000069  47.84000015
C     6.57000017  17.73999977  46.52999878
C     7.60999966  17.80999947  45.63000107
C     8.82999992  17.13999939  45.93999863
C    12.82999992  16.02000046  46.76000214
C    13.59000015  16.22999954  45.58000183
C    14.96999931  16.23999977  45.50000000
C     5.19000006  18.19000053  46.11999893
H     4.87123108  17.65163422  45.22744751
H     9.77000046  17.53999901  43.97999573
H    10.59000015  15.95000076  48.66000366
H     8.23999977  16.34000015  49.22999954
H     6.10000038  17.43000031  48.61999893
H     7.46999979  18.37000084  44.71000290
H    15.51000023  16.52000046  44.61000061
H     4.59000015  17.98999977  47.02000046
H     5.22000027  19.27999878  46.09000397
S    16.03999901  15.44000053  49.27000046
C    18.71999931  15.14999962  48.47000122
C    17.39999962  15.39000034  48.13999939
C    17.09000015  15.78999996  46.79999924
C    18.11000061  15.95999908  45.87999725
C    19.37000084  15.36999893  46.14999771
C    20.32999992  15.22999954  45.10000229
C    21.59000015  14.78000069  45.41999817
C    22.01999855  14.55000019  46.75000000
C    21.07000160  14.63999939  47.75000000
C    19.76000023  15.11999989  47.50999832
C    15.64000034  15.90999985  46.69000244
C    14.93999958  15.72999954  47.90999985
C    13.55000019  15.72000027  47.93000031
C    23.45999908  14.28999996  47.14000320
H    23.57373047  14.66673851  48.15648270
H    18.96999931  14.84000015  49.47999954
H    17.85000038  16.39999962  44.92000198
H    20.07999802  15.59999943  44.12000275
H    22.34999847  14.88999939  44.65000153
H    21.35000038  14.27000046  48.73000336
H    12.96000004  15.47999954  48.81000137
H    24.07999992  14.85999966  46.44000244
H    23.75000000  13.22999954  47.15000153
S    15.98999977  12.92000008  52.44999695
C    18.59000015  12.28000069  51.58000183
C    17.22999954  12.28000069  51.36000061
C    16.69999886  11.87999916  50.08999634
C    17.59000015  11.51999950  49.09999847
C    18.97999954  11.50000000  49.34999847
C    19.96999931  11.13000011  48.39000320
C    21.31000137  11.13999939  48.68999863
C    21.83000183  11.46000004  49.98000336
C    20.94000053  11.92999935  50.91999817
C    19.55000114  11.89000034  50.61000061
C    15.26999950  12.13999939  50.01999664
C    14.73000050  12.69000053  51.22000122
C    13.42000008  13.14000034  51.25000000
C    23.26000023  11.23999977  50.40999985
H    23.43864822  11.39006329  51.47473907
H    18.96999931  12.63000011  52.54000092
H    17.27000046  11.18000031  48.11999893
H    19.63000107  10.92000008  47.37999725
H    22.04999924  10.97000027  47.90999985
H    21.18999863  12.25000000  51.91999817
H    12.94999981  13.40999985  52.18999863
H    23.32999992  10.15999985  50.25000000
H    23.95000076  11.77000046  49.73999786
S    12.09000015  12.43000031  47.58999634
C     9.39999962  12.96000004  48.29000092
C    10.73999977  12.90999985  48.62999725
C    11.18999958  13.26000023  49.93999863
C    10.29000092  13.75000000  50.86999893
C     8.93000031  13.94999981  50.54000092
C     7.92000008  14.39000034  51.44000244
C     6.60000038  14.50000000  51.07999802
C     6.21000004  14.07999992  49.78000259
C     7.13000011  13.56999969  48.88999939
C     8.50000000  13.47000027  49.25000000
C    12.63000011  13.07999992  50.08999634
C    13.21000004  12.43999958  48.96999741
C    14.50000000  11.92999935  48.87000275
C     4.90000010  14.55999947  49.20999908
H     4.72245598  13.96345043  48.31517792
H     9.06999969  12.63000011  47.30999756
H    10.64000034  14.04999924  51.86000061
H     8.28999996  14.73999977  52.39999771
H     5.92000008  15.05000019  51.72999954
H     6.85999966  13.42000008  47.84999847
H    14.75000000  11.33999920  47.98999786
H     4.86000013  15.64000034  49.03999710
H     4.07999992  14.37000084  49.91000366
