96

S    12.10000038  17.00000000  44.09000015
C     9.40999985  17.42000008  44.80999756
C    10.70000076  17.10000038  45.17000198
C    11.05999947  16.79999924  46.52000046
C    10.11000061  16.84000015  47.52999878
C     8.75000000  17.01000023  47.14000320
C     7.72000027  16.95999908  48.13000107
C     6.44000006  17.30999947  47.78999710
C     6.15999985  17.79000092  46.47999573
C     7.09000015  17.82999992  45.45999908
C     8.39999962  17.39999962  45.80999756
C    12.50000000  16.65999985  46.66999817
C    13.21000004  16.73999977  45.45000076
C    14.59000015  16.62999916  45.34999847
C     4.74000025  18.12999916  46.10000229
H     4.44117403  17.71022034  45.13948822
H     9.10000038  17.64999962  43.79000092
H    10.26000023  16.40999985  48.50999832
H     8.01999950  16.73999977  49.15000153
H     5.69999981  17.28000069  48.57999802
H     6.91999960  18.23999977  44.47000122
H    15.26000023  16.75000000  44.51000214
H     4.11999989  17.72999954  46.90999985
H     4.53000021  19.20999908  46.04000092
S    15.65999985  15.73999977  49.09999847
C    18.23999977  14.93000031  48.34999847
C    17.02999878  15.48999977  48.00000000
C    16.68000031  15.90000057  46.66999817
C    17.70000076  15.97000027  45.75000000
C    19.01000023  15.52999973  46.07999802
C    20.13999939  15.57000065  45.21999741
C    21.40999985  15.14999962  45.54000092
C    21.65999985  14.57999992  46.81999969
C    20.56999969  14.51000023  47.65999603
C    19.22999954  14.85999966  47.34000397
C    15.26999950  16.25000000  46.51000214
C    14.59000015  16.18000031  47.75000000
C    13.21000004  16.36999893  47.84000015
C    23.05999947  14.34000015  47.34000397
H    23.24500847  14.63885880  48.37177658
H    18.53000069  14.65000057  49.34999847
H    17.46000099  16.32999992  44.75000000
H    19.96999931  15.97000027  44.22999954
H    22.18000031  15.25000000  44.78000259
H    20.76999855  14.18000031  48.68000031
H    12.71000004  16.39999962  48.80000305
H    23.81000137  14.89999962  46.77000046
H    23.18000031  13.26000023  47.18000031
S    11.79999924  17.21999931  50.98999786
C     9.17000008  17.84000015  51.79999924
C    10.40999985  17.32999992  52.08000183
C    10.70000076  16.75000000  53.36000061
C     9.72999954  16.69000053  54.34999847
C     8.43999958  17.20000076  54.05000305
C     7.40999985  17.10000038  55.02999878
C     6.11999989  17.51000023  54.75000000
C     5.79999971  17.90999985  53.43000031
C     6.78999996  18.11000061  52.49000168
C     8.14999962  17.80999947  52.77999878
C    12.09000015  16.35000038  53.47999954
C    12.84999943  16.70999908  52.32999802
C    14.22999954  16.61999893  52.27000427
C     4.39000034  18.32999992  53.09999847
H     3.94681144  17.70095825  52.32799530
H     8.97999954  18.15000153  50.77000046
H     9.98000050  16.18000031  55.27999878
H     7.60999966  16.45000076  55.86999893
H     5.35000038  17.43000031  55.51000214
H     6.56000042  18.39999962  51.46999741
H    14.68999958  16.82999992  51.31000137
H     3.72000003  18.30999947  53.97999573
H     4.42000008  19.40000153  52.84999847
S    15.15999985  15.29000092  55.93999863
C    17.84000015  14.96000099  55.20999908
C    16.59000015  15.44999981  54.89999771
C    16.29999924  16.02000046  53.61999893
C    17.29999924  16.20000076  52.68000031
C    18.63000107  15.88000107  53.02999878
C    19.62000084  16.03999901  52.02000046
C    20.90999985  15.62000084  52.29999924
C    21.21999931  15.17000008  53.60000229
C    20.26000023  15.01999950  54.58000183
C    18.89000130  15.31000042  54.33000183
C    14.86999989  16.21000099  53.44999695
C    14.13000011  15.90000057  54.61999893
C    12.75000000  16.01000023  54.66999817
C    22.63000107  14.78999996  53.97999573
H    22.84365273  15.21018314  54.96279907
H    17.97999954  14.34999943  56.09000397
H    17.13000107  16.65999985  51.70999908
H    19.40000153  16.36999893  51.00999832
H    21.71999931  15.75000000  51.59000015
H    20.52000046  14.55999947  55.52999878
H    12.09000015  15.76000023  55.50000000
H    23.32999992  15.21999931  53.23999786
H    22.79000092  13.71000099  53.89999771
