96

S    12.15000057  16.46000099  43.95000076
C     9.50000000  17.01000023  44.59000015
C    10.80000019  16.87000084  45.02999878
C    11.13000011  16.70999908  46.40999603
C    10.19000053  16.86000061  47.41000366
C     8.82999992  16.92000008  47.02000046
C     7.86000013  17.02999878  48.04999924
C     6.57999992  17.23999977  47.60000229
C     6.24000025  17.53000069  46.25000000
C     7.20000029  17.40999985  45.27000046
C     8.52999973  17.06999969  45.61999893
C    12.56000042  16.43000031  46.52999878
C    13.28999996  16.43000031  45.31999969
C    14.65999985  16.21999931  45.27999878
C     4.80999994  17.85000038  45.87999725
H     4.45308018  17.13615990  45.13760757
H     9.21000004  17.26000023  43.56999969
H    10.40999985  16.52000046  48.41999817
H     8.10000038  16.92000008  49.10999680
H     5.72000027  17.22999954  48.27999878
H     6.94000006  17.56000137  44.22000122
H    15.24000072  16.32999992  44.36999893
H     4.15999985  17.90999985  46.76000214
H     4.61000013  18.86000061  45.50000000
S    15.67999935  15.84000015  49.08000183
C    18.38000107  15.34000015  48.50999832
C    17.12000084  15.65000057  48.04999924
C    16.77999878  15.84000015  46.66999817
C    17.80999947  16.01000023  45.77000046
C    19.12999916  15.65999985  46.17000198
C    20.19000053  15.64000034  45.21999741
C    21.44000053  15.18000031  45.54999924
C    21.65999985  14.70000076  46.86999893
C    20.69000053  14.78000069  47.84000015
C    19.40000153  15.26999950  47.52999878
C    15.34000015  15.88999939  46.45999908
C    14.63000107  16.06999969  47.67000198
C    13.27000046  16.34000015  47.72999573
C    23.02000046  14.19999981  47.29000092
H    23.38269806  14.69071102  48.19319153
H    18.53999901  15.03999901  49.54999924
H    17.68000031  16.28000069  44.72999954
H    19.96000099  15.81999969  44.16999817
H    22.32000160  15.25000000  44.91000366
H    21.02999878  14.47999954  48.82999802
H    12.63000011  16.39000130  48.61000061
H    23.62999916  14.40999985  46.39999771
H    23.02000046  13.10999966  47.38999939
S    15.93999958  13.47000027  51.86000061
C    18.51000023  12.44999981  51.26999664
C    17.15999985  12.53000069  50.97999954
C    16.64999962  12.15000057  49.69999695
C    17.51000023  11.54999924  48.80000305
C    18.90999985  11.47999954  49.01000214
C    19.86999893  10.84000015  48.16999817
C    21.15999985  10.67000008  48.60000229
C    21.64999962  11.26000023  49.79999924
C    20.76999855  11.94000053  50.59999847
C    19.38999939  12.02000046  50.25000000
C    15.24000072  12.46000099  49.50000000
C    14.73000050  13.21000004  50.59000015
C    13.40999985  13.63000011  50.65000153
C    23.09000015  10.98000050  50.19000244
H    23.33137894  11.27107430  51.21231079
H    18.88000107  12.71999931  52.25000000
H    17.07999992  11.05999947  47.93000031
H    19.57999992  10.34999943  47.25000000
H    21.84999847  10.03000069  48.06000137
H    20.95999908  12.39999962  51.56999969
H    13.09999943  14.29999924  51.45000076
H    23.45999908   9.96000004  50.06999969
H    23.78999901  11.46999931  49.50000000
S    11.90000057  12.18000031  47.23999786
C     9.22999954  12.69999981  48.06999969
C    10.59000015  12.69000053  48.30999756
C    11.13999939  13.38000107  49.45000076
C    10.31000042  13.86000061  50.44000244
C     8.89999962  13.76999950  50.27999878
C     8.05999947  14.25000000  51.32999802
C     6.70000029  14.32999992  51.09000397
C     6.14000034  13.78999901  49.91000366
C     6.96000004  13.26000023  48.92000198
C     8.36999989  13.25000000  49.05000305
C    12.57999992  13.23999977  49.59999847
C    13.12000084  12.61999989  48.43999863
C    14.45000076  12.20000076  48.37999725
C     4.69000006  13.96999931  49.54000092
H     4.56217098  13.63622379  48.51026535
H     8.92000008  12.18999958  47.15999985
H    10.67999935  14.14000034  51.42000198
H     8.51000023  14.51000023  52.27000427
H     6.09000015  14.93999958  51.75000000
H     6.47000027  12.79000092  48.06999969
H    14.75999928  11.56000042  47.56000137
H     4.46999979  15.05000019  49.56999969
H     3.94000006  13.43999958  50.13999939
