96

S    12.10000038  17.29999924  44.41999817
C     9.35000038  17.32999992  44.99000168
C    10.62999916  17.02000046  45.38000107
C    10.93999958  16.56999969  46.70999908
C     9.92000008  16.22999954  47.56999969
C     8.60000038  16.56999969  47.21000290
C     7.55000019  16.51000023  48.18000031
C     6.28999996  16.90000153  47.80000305
C     6.00000000  17.43999863  46.52000046
C     7.00000000  17.67000008  45.61000061
C     8.30999947  17.20000076  45.94999695
C    12.36999989  16.44000053  46.93000031
C    13.12000084  16.87999916  45.80999756
C    14.51000023  16.79999924  45.77999878
C     4.59999990  17.93000031  46.18000031
H     4.13597631  17.55878067  45.26622772
H     9.26000023  17.93000031  44.09000015
H    10.26000023  16.05999947  48.59000397
H     7.86999989  16.50000000  49.22000122
H     5.55000019  16.87999916  48.59000397
H     6.67999983  18.18000031  44.71000290
H    14.98999977  17.05000114  44.84000397
H     3.91000009  17.94000053  47.04000092
H     4.76999998  19.01000023  46.20999908
S    15.51000023  15.59999943  49.43000031
C    18.26000023  15.40999985  48.82999802
C    16.97999954  15.72000027  48.43999863
C    16.63999939  16.17000008  47.11999893
C    17.69000053  16.42000008  46.25999832
C    18.98999977  15.95999908  46.58000183
C    20.05000114  15.95999908  45.61999893
C    21.31000137  15.51000023  45.90999985
C    21.56999969  15.05000019  47.22000122
C    20.66999817  15.19999981  48.25000000
C    19.31999969  15.51000023  47.90000153
C    15.21000004  16.31999969  46.90000153
C    14.47000027  15.88000107  48.02000046
C    13.07999992  15.95000076  48.04000092
C    22.95999908  14.60999966  47.63000107
H    23.21602821  15.05805111  48.59010315
H    18.47999954  15.05000019  49.82999802
H    17.47999954  16.77000046  45.25000000
H    20.06000137  16.52000046  44.68999863
H    22.06000137  15.55999947  45.12000275
H    20.94000053  14.92000008  49.26000214
H    12.50000000  15.93999958  48.95999908
H    23.54000092  14.93000031  46.75000000
H    23.06999969  13.52000046  47.70999908
S    11.72000027  17.25000000  51.18999863
C     9.10000038  17.78000069  51.98999786
C    10.36999893  17.38999939  52.34000397
C    10.72999954  16.94000053  53.64999771
C     9.81999969  16.95999908  54.68999863
C     8.51000023  17.38999939  54.36999893
C     7.49000025  17.53999901  55.34999847
C     6.19000006  17.88999939  55.06999969
C     5.89999962  18.30000114  53.74000168
C     6.80000019  18.13999939  52.71999741
C     8.14999962  17.79999924  53.04000092
C    12.15999985  16.64999962  53.70999908
C    12.82999992  16.70999908  52.45999908
C    14.22000027  16.65999985  52.43999863
C     4.51000023  18.72999954  53.30999756
H     4.09047794  18.04027748  52.57761383
H     8.92000008  18.05999947  50.96000290
H    10.19000053  17.10000038  55.70000076
H     7.79999971  17.40999985  56.38999939
H     5.33999968  17.94000053  55.75000000
H     6.57999992  18.39999962  51.69000244
H    14.70000076  16.86000061  51.47999573
H     3.89999986  18.85000038  54.20999908
H     4.51000023  19.75000000  52.91999817
S    15.32999992  16.13000107  56.25000000
C    18.00000000  15.80000019  55.51000214
C    16.72999954  16.18000031  55.14999771
C    16.39999962  16.44000053  53.77999878
C    17.43999863  16.40999985  52.87000275
C    18.78999901  16.15999985  53.22000122
C    19.88000107  16.13000107  52.31999969
C    21.11000061  15.59000015  52.63000107
C    21.35000038  15.11000061  53.95000076
C    20.35000038  15.22999954  54.88999939
C    19.05999947  15.72999954  54.56999969
C    14.94999981  16.54999924  53.61999893
C    14.27000046  16.40999985  54.86000061
C    12.88000011  16.36000061  54.86999893
C    22.67000008  14.55999947  54.41999817
H    23.10312462  15.00732517  55.31465149
H    18.18000031  15.26000023  56.44000244
H    17.13999939  16.64999962  51.86000061
H    19.68000031  16.46000099  51.30000305
H    21.90000153  15.44999981  51.90000153
H    20.59999847  14.81999969  55.86999893
H    12.32999992  16.21999931  55.79999924
H    23.34000015  14.68000031  53.55999756
H    22.53000069  13.48000050  54.54000092
