96

S    12.55000019  16.63999939  43.99000168
C     9.98000050  17.51000023  44.71000290
C    11.17000008  16.90999985  45.07999802
C    11.46000004  16.54999924  46.43000031
C    10.47000027  16.55999947  47.41000366
C     9.17000008  16.94000053  47.01000214
C     8.02999973  16.88999939  47.85999680
C     6.76000023  17.28999901  47.50000000
C     6.60000038  17.84000015  46.20999908
C     7.63999987  17.85000038  45.31000137
C     8.93999958  17.38000107  45.65999985
C    12.89000034  16.34000015  46.55000305
C    13.66000080  16.42000008  45.35999680
C    15.03999901  16.43000031  45.47999954
C     5.23999977  18.36000061  45.79000092
H     4.82658577  17.72562408  45.00593948
H     9.73999977  18.09999847  43.82999802
H    10.69000053  16.21999931  48.40999985
H     8.15999985  16.45000076  48.85000229
H     5.96000004  17.35000038  48.22999954
H     7.36000013  18.53999901  44.51000214
H    15.72999954  16.47999954  44.64000320
H     4.55999994  18.31999969  46.65000153
H     5.21000004  19.40000153  45.45999908
S    15.88999939  15.34999943  49.13999939
C    18.60999870  14.85999966  48.43999863
C    17.35999870  15.34999943  48.13999939
C    17.05999947  15.97000027  46.88999939
C    18.12000084  16.09000015  46.00999832
C    19.38999939  15.52000046  46.25000000
C    20.38999939  15.53999996  45.24000168
C    21.63999939  15.06999969  45.56999969
C    22.01000023  14.60000038  46.86000061
C    20.98999977  14.42999935  47.77000046
C    19.70000076  14.98000050  47.55000305
C    15.62999916  16.18999863  46.72999954
C    14.80999947  15.90000057  47.84999847
C    13.43000031  16.11999893  47.81999969
C    23.38999939  14.15999985  47.28000259
H    23.58961868  14.61627007  48.24957275
H    18.71000099  14.27000046  49.34999847
H    17.94000053  16.47999954  45.00999832
H    20.06000137  15.78999996  44.22999954
H    22.46999931  15.01999950  44.87999725
H    21.11999893  14.00000000  48.75999832
H    12.76999950  16.18999863  48.68000031
H    24.04000092  14.55000019  46.47999573
H    23.40999985  13.05999947  47.22999954
S    16.13000107  12.94999981  52.21000290
C    18.76000023  12.25999928  51.52000046
C    17.42000008  12.28999996  51.18000031
C    16.90000153  11.77000046  49.95999908
C    17.79000092  11.36999989  48.99000168
C    19.18000031  11.36000061  49.26000214
C    20.17999840  10.98000050  48.31999969
C    21.50000000  10.93999958  48.68000031
C    21.98999786  11.38000011  49.93000031
C    21.07000160  11.87999916  50.83000183
C    19.68000031  11.84999943  50.52000046
C    15.47999954  12.07999992  49.79999924
C    14.91000080  12.67000008  50.94999695
C    13.63000011  13.22000027  50.97000122
C    23.40999985  11.06999969  50.34999847
H    23.59512329  11.34056187  51.38953018
H    19.10000038  12.74000072  52.43000031
H    17.47999954  11.11999989  47.97000122
H    19.76000023  10.43000031  47.47000122
H    22.15999985  10.34999943  48.04999924
H    21.37000084  11.97999954  51.86999893
H    13.10999966  13.57999992  51.84999847
H    23.45000076   9.96999931  50.37000275
H    24.18999863  11.32999992  49.62999725
S    12.23000050  12.42000008  47.31999969
C     9.56999969  13.01000023  48.06000137
C    10.90000057  12.89999962  48.40000153
C    11.42000008  13.26000023  49.68000031
C    10.48999977  13.86999989  50.50000000
C     9.09000015  13.94000053  50.28999710
C     8.10999966  14.34000015  51.25000000
C     6.78999996  14.44000053  50.89000320
C     6.30999994  14.06999969  49.61000061
C     7.23000002  13.50000000  48.75999832
C     8.63000011  13.45999908  49.02000046
C    12.84999943  13.02000046  49.82999802
C    13.42000008  12.48999977  48.63999939
C    14.73999977  12.05000019  48.61999893
C     4.90999985  14.47999954  49.20999908
H     4.62696695  14.18989086  48.19815445
H     9.30999947  12.63000011  47.06999969
H    10.90000057  14.25000000  51.43000031
H     8.43999958  14.45000076  52.28000259
H     6.11000013  14.91000080  51.59999847
H     6.90000010  13.12999916  47.80000305
H    15.13000011  11.64000034  47.69000244
H     4.80999994  15.57999992  49.23999786
H     4.30999994  13.92000008  49.93999863
