96

S    12.25000000  16.86000061  44.31999969
C     9.57999992  17.34000015  45.13000107
C    10.85999966  16.92000008  45.41999817
C    11.23999977  16.55999947  46.75000000
C    10.31999969  16.61999893  47.77000046
C     8.98999977  16.98999977  47.44999695
C     7.97999954  16.95999908  48.46000290
C     6.67000008  17.20999908  48.13999939
C     6.26999950  17.75000000  46.88999939
C     7.23999977  17.85000038  45.91999817
C     8.57999992  17.38999939  46.12999725
C    12.69000053  16.43000031  46.83000183
C    13.40000057  16.42000008  45.59999847
C    14.78999996  16.45000076  45.52999878
C     4.81999969  17.93000031  46.50000000
H     4.49942493  17.46694756  45.56677246
H     9.19999981  17.68000031  44.16999817
H    10.59000015  16.36999893  48.79000092
H     8.27999973  16.63999939  49.45000076
H     5.92000008  16.84000015  48.82999802
H     6.98999977  18.06999969  44.87999725
H    15.32999992  16.63999939  44.61000061
H     4.19000006  17.53000069  47.29999924
H     4.63000011  19.00000000  46.55000305
S    15.90000057  15.93000031  49.31000137
C    18.55999947  15.40999985  48.59000397
C    17.27000046  15.71000004  48.20999908
C    16.93000031  16.11999893  46.88000107
C    17.93000031  16.09000015  45.93000031
C    19.25000000  15.71000004  46.25999832
C    20.32999992  15.65000057  45.34000015
C    21.61999893  15.39000034  45.73999786
C    21.94999886  15.11000061  47.09000015
C    20.93000031  15.10000038  48.01000214
C    19.59000015  15.36999893  47.61000061
C    15.48999977  16.32999992  46.72999954
C    14.80999947  16.36000061  47.97999954
C    13.42000008  16.39000130  48.02999878
C    23.38999939  14.68000031  47.30999756
H    23.73117447  15.23440742  48.18425751
H    18.77000046  15.29000092  49.65000153
H    17.67000008  16.31000137  44.88999939
H    20.06000137  15.77999973  44.29000092
H    22.43999863  15.10000038  45.10000229
H    21.09999847  14.78999996  49.02999878
H    12.94999981  16.48999977  49.00000000
H    24.06999969  14.88999939  46.47999573
H    23.36999893  13.57999992  47.38999939
S    16.02000046  13.23999977  52.47000122
C    18.60000038  12.48999977  51.72999954
C    17.29999924  12.72999954  51.35000229
C    16.87999916  12.43000031  50.00999832
C    17.77000046  12.02000046  49.02999878
C    19.14999962  11.96000004  49.33000183
C    20.03999901  11.49000072  48.33000183
C    21.34000015  11.23000050  48.70999908
C    21.78999901  11.61000061  50.00000000
C    20.93000031  12.11999989  50.94999695
C    19.52999878  12.17000008  50.70999908
C    15.44999981  12.67000008  49.93000031
C    14.84000015  13.04999924  51.14999771
C    13.50000000  13.38999939  51.24000168
C    23.26999855  11.49000072  50.30000305
H    23.47698975  11.66130257  51.35636902
H    18.92000008  12.77999973  52.72999573
H    17.43000031  11.77000046  48.02999878
H    19.55999947  11.13000011  47.42000198
H    21.98999786  10.59999943  48.11999893
H    21.27000046  12.58999920  51.86999893
H    13.09999943  13.67000008  52.21000290
H    23.64000130  10.48999977  50.04000092
H    23.71999931  12.20999908  49.61000061
S    12.05999947  12.64999962  47.58999634
C     9.46000004  13.28999996  48.34000015
C    10.78999996  13.25000000  48.67000198
C    11.30000019  13.67000008  49.93999863
C    10.36000061  14.01999950  50.89000320
C     8.96000004  13.97999954  50.65999985
C     8.03999996  14.22999954  51.70999908
C     6.71000004  14.37000084  51.39999771
C     6.24000025  14.09999943  50.08999634
C     7.11000013  13.68000031  49.09999847
C     8.51000023  13.63999939  49.33000183
C    12.71999931  13.38999939  50.06999969
C    13.26000023  12.82999992  48.88999939
C    14.61999989  12.53999901  48.81000137
C     4.76999998  14.19999981  49.75999832
H     4.55748701  14.02999020  48.70452118
H     9.06000042  13.01000023  47.36999893
H    10.76000023  14.15999985  51.88999939
H     8.47999954  14.55000019  52.64999771
H     6.03999996  14.72000027  52.18000031
H     6.71000004  13.27999973  48.16999817
H    15.05000019  12.28999996  47.84999847
H     4.51999998  15.24000072  49.99000168
H     4.13000011  13.53000069  50.34999847
