96

S    12.02000046  16.97000122  44.02999878
C     9.48000050  17.64000130  44.92000198
C    10.65000057  16.95999908  45.15999603
C    11.00999928  16.61999893  46.50000000
C    10.03000069  16.48999977  47.47000122
C     8.78999996  17.13000107  47.23999786
C     7.72000027  17.05999947  48.16999817
C     6.44999981  17.43999863  47.81000137
C     6.17000008  17.93000031  46.51000214
C     7.22000027  18.20999908  45.66999817
C     8.53999996  17.78000069  45.97999954
C    12.46000099  16.51000023  46.59999847
C    13.14000034  16.60000038  45.35999680
C    14.52000046  16.47999954  45.26000214
C     4.77999973  18.20000076  45.98999786
H     4.50330114  17.56855774  45.14571381
H     9.25000000  17.90999985  43.88999939
H    10.19000053  15.93999958  48.39000320
H     7.86999989  16.32999992  48.96999741
H     5.60999966  17.27000046  48.48999786
H     7.07000017  18.53999901  44.65000153
H    15.06999969  16.59000015  44.33000183
H     4.26999998  18.04999924  46.95000076
H     4.76000023  19.27999878  45.77999878
S    15.57999992  15.65999985  49.06000137
C    18.17000008  15.00000000  48.30999756
C    16.94000053  15.50000000  47.94000244
C    16.63999939  15.95999908  46.62000275
C    17.69000053  15.93000031  45.72000122
C    18.98999977  15.47000027  46.04000092
C    20.07999802  15.43000031  45.13000107
C    21.32999802  14.94999981  45.45999908
C    21.61000061  14.73999977  46.84000015
C    20.59999847  14.81999969  47.77999878
C    19.26000023  15.10000038  47.41000366
C    15.21000004  16.15999985  46.44000244
C    14.52999973  16.01000023  47.68000031
C    13.15000057  16.14999962  47.76000214
C    23.02000046  14.40999985  47.23999786
H    23.33951759  14.90702820  48.15595245
H    18.32999992  14.68000031  49.34000015
H    17.56000137  16.35000038  44.72999954
H    19.98999977  15.77000046  44.09999847
H    22.11000061  14.98000050  44.71000290
H    20.72000122  14.47000027  48.80000305
H    12.61000061  15.88999939  48.67000198
H    23.68999863  14.56999969  46.38000107
H    22.95000076  13.31999969  47.37999725
S    16.13999939  12.81000042  52.12999725
C    18.68999863  12.35000038  51.30000305
C    17.36999893  12.32999992  50.93999863
C    16.84999847  11.96000004  49.65999985
C    17.75000000  11.67000008  48.64999771
C    19.12999916  11.69000053  48.93000031
C    20.10000038  11.05999947  48.09999847
C    21.42000008  10.93000031  48.43999863
C    21.87999916  11.38000011  49.71000290
C    20.95999908  11.87000084  50.61000061
C    19.59000015  12.00000000  50.26000214
C    15.40999985  12.17000008  49.68000031
C    14.86999989  12.67000008  50.89000320
C    13.57999992  13.20000076  50.94999695
C    23.32999992  11.23000050  50.11000061
H    23.55056381  11.44344711  51.15589523
H    19.10000038  12.67000008  52.25999832
H    17.38999939  11.33999920  47.67000198
H    19.79999924  10.55999947  47.18000031
H    22.11999893  10.46000004  47.76000214
H    21.21000099  12.20999908  51.60999680
H    13.30999947  13.71000099  51.86999893
H    23.61999893  10.21000004  49.86000061
H    23.78999901  11.97000027  49.43000031
S    12.10000038  12.35999966  47.25999832
C     9.46000004  12.94000053  48.15000153
C    10.80999947  12.86000061  48.36999893
C    11.36000061  13.26000023  49.62999725
C    10.47999954  13.59000015  50.65000153
C     9.09000015  13.73000050  50.45000076
C     8.09000015  14.21000004  51.33999634
C     6.74000025  14.19000053  51.10000229
C     6.24000025  13.83999920  49.81999969
C     7.17000008  13.48999977  48.87000275
C     8.56000042  13.38999939  49.15000153
C    12.79000092  13.07000065  49.79999924
C    13.26000023  12.46000099  48.61000061
C    14.59000015  12.06999969  48.54999924
C     4.77999973  14.02999973  49.48999786
H     4.68775129  13.85259914  48.41849518
H     9.07999992  12.43999958  47.25999832
H    10.92000008  13.92000008  51.59000015
H     8.47000027  14.47000027  52.32999802
H     6.10000038  14.56999969  51.88999939
H     6.89000034  13.28999996  47.83000183
H    14.96000099  11.72000027  47.58999634
H     4.53000021  15.07999992  49.73999786
H     4.13000011  13.40000057  50.11000061
