96

S    12.18000031  17.02999878  44.20000076
C     9.51000023  17.43999863  44.92000198
C    10.75000000  16.94000053  45.24000168
C    11.07999992  16.46999931  46.55000305
C    10.07999992  16.38000107  47.49000168
C     8.75000000  16.75000000  47.18000031
C     7.69999981  16.77999878  48.13000107
C     6.47000027  17.31999969  47.81999969
C     6.21000004  17.88999939  46.55000305
C     7.22000027  17.92000008  45.61000061
C     8.52000046  17.43999863  45.93999863
C    12.51999950  16.38000107  46.77000046
C    13.22000027  16.48999977  45.54000092
C    14.59000015  16.28999901  45.52000046
C     4.86000013  18.42000008  46.11999893
H     4.44484282  17.68273735  45.43283844
H     9.38000011  17.98999977  43.99000168
H    10.21999931  15.95000076  48.47999954
H     7.95000029  16.36000061  49.09999847
H     5.80999947  17.35999870  48.68000031
H     7.07999992  18.18000031  44.55999756
H    15.01000023  16.50000000  44.52999878
H     4.21000004  18.60999870  46.98999786
H     4.97000027  19.30999947  45.50000000
S    15.69000053  15.65000057  49.25000000
C    18.42000008  15.25000000  48.54999924
C    17.12000084  15.54999924  48.20000076
C    16.76000023  15.88000107  46.86000061
C    17.72999954  15.90999985  45.87999725
C    19.05999947  15.57000065  46.23000336
C    20.05000114  15.60999966  45.20999908
C    21.30000114  15.10000038  45.45999908
C    21.64999962  14.73000050  46.77999878
C    20.71000099  14.57999992  47.77999878
C    19.42000008  15.14000034  47.56000137
C    15.34000015  16.14999962  46.69000244
C    14.60999966  16.03000069  47.90000153
C    13.22000027  16.09000015  47.94000244
C    23.09000015  14.34000015  47.04000092
H    23.54424286  14.99297523  47.78524399
H    18.67000008  14.78000069  49.50000000
H    17.60000038  16.34000015  44.88999939
H    19.78000069  16.01000023  44.22999954
H    22.13999939  15.05000019  44.77000427
H    20.81999969  14.22999954  48.80000305
H    12.61999989  15.81999969  48.80000305
H    23.68999863  14.37999916  46.11999893
H    23.05999947  13.31999969  47.43999863
S    16.03000069  13.19000053  52.34000397
C    18.65999985  12.64999962  51.51000214
C    17.31999969  12.72999954  51.20999908
C    16.73999977  12.23000050  50.00000000
C    17.64000130  11.79999924  49.03999710
C    19.03000069  11.68000031  49.27999878
C    19.97999954  11.17000008  48.34000015
C    21.32999802  11.23000050  48.57999802
C    21.77999878  11.59000015  49.86999893
C    20.95999908  12.15999985  50.81999969
C    19.55999947  12.15000057  50.52999878
C    15.31000042  12.43999958  49.91000366
C    14.78000069  13.02000046  51.09000397
C    13.42000008  13.32999992  51.18999863
C    23.22999954  11.33999920  50.22999573
H    23.50059700  11.56074905  51.26253891
H    19.01000023  12.88000011  52.50999832
H    17.12000084  11.61999893  48.09999847
H    19.67000008  10.82999992  47.36000061
H    22.01000023  10.93999958  47.77999878
H    21.28999901  12.48999977  51.79999924
H    13.15000057  13.82999992  52.11999893
H    23.36999893  10.25000000  50.11000061
H    23.90000153  11.72999954  49.45999908
S    11.82000065  12.32999992  47.68000031
C     9.15999985  12.84000015  48.56999969
C    10.52000046  12.86000061  48.75999832
C    11.10999966  13.27000046  50.00000000
C    10.22999954  13.75000000  50.96000290
C     8.82999992  13.83999920  50.76000214
C     7.96999979  14.42999935  51.72999954
C     6.63000011  14.53999996  51.45999908
C     6.07999992  14.11999893  50.20999908
C     6.85999966  13.45000076  49.29999924
C     8.26000023  13.35000038  49.54000092
C    12.53000069  13.03999996  50.15999603
C    13.04999924  12.51000023  48.95000076
C    14.42000008  12.25999928  48.83999634
C     4.65000010  14.44000053  49.85000229
H     4.46460152  14.06207180  48.84457016
H     8.71000004  12.46999931  47.64999771
H    10.54999924  13.99000072  51.97000122
H     8.40999985  14.81999969  52.64999771
H     6.00000000  15.08999920  52.15000153
H     6.48999977  13.03999996  48.36000061
H    14.78000069  11.85999966  47.90000153
H     4.44999981  15.52000046  49.72999954
H     3.98999977  13.94000053  50.56000137
