96

S    12.25000000  16.86000061  44.31999969
C     9.57999992  17.34000015  45.13000107
C    10.85999966  16.92000008  45.41999817
C    11.23999977  16.55999947  46.75000000
C    10.31999969  16.61999893  47.77000046
C     8.98999977  16.98999977  47.44999695
C     7.97999954  16.95999908  48.46000290
C     6.67000008  17.20999908  48.13999939
C     6.26999950  17.75000000  46.88999939
C     7.23999977  17.85000038  45.91999817
C     8.57999992  17.38999939  46.12999725
C    12.69000053  16.43000031  46.83000183
C    13.40000057  16.42000008  45.59999847
C    14.78999996  16.45000076  45.52999878
C     4.81999969  17.93000031  46.50000000
H     4.49942493  17.46694756  45.56677246
H     9.19999981  17.68000031  44.16999817
H    10.59000015  16.36999893  48.79000092
H     8.27999973  16.63999939  49.45000076
H     5.92000008  16.84000015  48.82999802
H     6.98999977  18.06999969  44.87999725
H    15.32999992  16.63999939  44.61000061
H     4.19000006  17.53000069  47.29999924
H     4.63000011  19.00000000  46.55000305
S    15.90000057  15.93000031  49.31000137
C    18.55999947  15.40999985  48.59000397
C    17.27000046  15.71000004  48.20999908
C    16.93000031  16.11999893  46.88000107
C    17.93000031  16.09000015  45.93000031
C    19.25000000  15.71000004  46.25999832
C    20.32999992  15.65000057  45.34000015
C    21.61999893  15.39000034  45.73999786
C    21.94999886  15.11000061  47.09000015
C    20.93000031  15.10000038  48.01000214
C    19.59000015  15.36999893  47.61000061
C    15.48999977  16.32999992  46.72999954
C    14.80999947  16.36000061  47.97999954
C    13.42000008  16.39000130  48.02999878
C    23.38999939  14.68000031  47.30999756
H    23.73117447  15.23440742  48.18425751
H    18.77000046  15.29000092  49.65000153
H    17.67000008  16.31000137  44.88999939
H    20.06000137  15.77999973  44.29000092
H    22.43999863  15.10000038  45.10000229
H    21.09999847  14.78999996  49.02999878
H    12.94999981  16.48999977  49.00000000
H    24.06999969  14.88999939  46.47999573
H    23.36999893  13.57999992  47.38999939
S    11.76000023  17.35000038  51.04999924
C     9.06000042  17.68000031  51.75000000
C    10.27999973  17.10000038  52.00000000
C    10.62999916  16.69000053  53.33000183
C     9.63999939  16.70999908  54.29999924
C     8.34000015  17.20000076  54.06000137
C     7.36000013  17.26000023  55.08999634
C     6.11000013  17.73999977  54.78000259
C     5.77000046  18.05999947  53.43000031
C     6.71999979  18.06999969  52.43000031
C     8.03999996  17.64000130  52.71999741
C    12.05999947  16.51000023  53.50999832
C    12.82999992  16.92000008  52.38999939
C    14.22000027  16.92000008  52.34000397
C     4.32999992  18.34000015  53.11000061
H     4.01730919  17.92781639  52.15061188
H     8.78999996  18.22000122  50.84999847
H     9.92000008  16.39000130  55.31000137
H     7.55999994  16.87000084  56.09000397
H     5.28999996  17.77000046  55.48999786
H     6.54999971  18.38000107  51.39999771
H    14.70999908  17.27000046  51.44000244
H     3.71000004  18.07999992  53.96999741
H     4.19000006  19.43000031  53.08000183
S    15.18000031  15.80999947  56.04999924
C    17.93000031  15.77000046  55.41999817
C    16.63999939  16.11999893  55.08999634
C    16.29999924  16.70999908  53.82999802
C    17.36999893  16.95000076  52.97999954
C    18.68000031  16.46999931  53.20999908
C    19.68000031  16.36999893  52.21000290
C    20.90999985  15.85000038  52.54000092
C    21.24000168  15.59999943  53.89999771
C    20.29000092  15.47000027  54.89999771
C    19.00000000  15.93999958  54.51000214
C    14.86999989  16.68000031  53.55999756
C    14.13000011  16.28000069  54.69999695
C    12.74000072  16.20000076  54.68999863
C    22.62000084  15.06999969  54.18000031
H    23.04022026  15.68252182  54.97770691
H    18.09000015  15.22999954  56.35000229
H    17.14999962  17.28999901  51.97000122
H    19.40000153  16.69000053  51.19999695
H    21.67000008  15.71000004  51.77999878
H    20.52999878  14.98999977  55.84000015
H    12.23000050  15.86999989  55.59000015
H    23.16999817  15.34999943  53.27000046
H    22.65999985  13.99000072  54.38999939
