96

S    12.15000057  16.46000099  43.95000076
C     9.50000000  17.01000023  44.59000015
C    10.80000019  16.87000084  45.02999878
C    11.13000011  16.70999908  46.40999603
C    10.19000053  16.86000061  47.41000366
C     8.82999992  16.92000008  47.02000046
C     7.86000013  17.02999878  48.04999924
C     6.57999992  17.23999977  47.60000229
C     6.24000025  17.53000069  46.25000000
C     7.20000029  17.40999985  45.27000046
C     8.52999973  17.06999969  45.61999893
C    12.56000042  16.43000031  46.52999878
C    13.28999996  16.43000031  45.31999969
C    14.65999985  16.21999931  45.27999878
C     4.80999994  17.85000038  45.87999725
H     4.45308018  17.13615990  45.13760757
H     9.21000004  17.26000023  43.56999969
H    10.40999985  16.52000046  48.41999817
H     8.10000038  16.92000008  49.10999680
H     5.72000027  17.22999954  48.27999878
H     6.94000006  17.56000137  44.22000122
H    15.24000072  16.32999992  44.36999893
H     4.15999985  17.90999985  46.76000214
H     4.61000013  18.86000061  45.50000000
S    15.67999935  15.84000015  49.08000183
C    18.38000107  15.34000015  48.50999832
C    17.12000084  15.65000057  48.04999924
C    16.77999878  15.84000015  46.66999817
C    17.80999947  16.01000023  45.77000046
C    19.12999916  15.65999985  46.17000198
C    20.19000053  15.64000034  45.21999741
C    21.44000053  15.18000031  45.54999924
C    21.65999985  14.70000076  46.86999893
C    20.69000053  14.78000069  47.84000015
C    19.40000153  15.26999950  47.52999878
C    15.34000015  15.88999939  46.45999908
C    14.63000107  16.06999969  47.67000198
C    13.27000046  16.34000015  47.72999573
C    23.02000046  14.19999981  47.29000092
H    23.38269806  14.69071102  48.19319153
H    18.53999901  15.03999901  49.54999924
H    17.68000031  16.28000069  44.72999954
H    19.96000099  15.81999969  44.16999817
H    22.32000160  15.25000000  44.91000366
H    21.02999878  14.47999954  48.82999802
H    12.63000011  16.39000130  48.61000061
H    23.62999916  14.40999985  46.39999771
H    23.02000046  13.10999966  47.38999939
S    11.72999954  17.39999962  50.91999817
C     9.13999939  17.90999985  51.70000076
C    10.36999893  17.39999962  52.05999756
C    10.75000000  16.97000122  53.36999893
C     9.75000000  16.80999947  54.31999969
C     8.45000076  17.27000046  54.00000000
C     7.37999964  17.05999947  54.92000198
C     6.09000015  17.27000046  54.51000214
C     5.78999996  17.80999947  53.23999786
C     6.78999996  18.00000000  52.30999756
C     8.13000011  17.75000000  52.68000031
C    12.18999958  16.79000092  53.41999817
C    12.89000034  17.05999947  52.22000122
C    14.27999973  17.02999878  52.14000320
C     4.33999968  18.09000015  52.90999985
H     4.04107094  17.51349449  52.03456497
H     9.03999996  18.25000000  50.66999817
H     9.94999981  16.31999969  55.27000046
H     7.62000036  16.39999962  55.76000214
H     5.26999998  17.01000023  55.18000031
H     6.57999992  18.42000008  51.31999969
H    14.88000011  17.28000069  51.26999664
H     3.73000002  17.88999939  53.80000305
H     4.26000023  19.14999962  52.62000275
S    15.34999943  15.93000031  55.84000015
C    17.90999985  15.24000072  55.01999664
C    16.73999977  15.90999985  54.73999786
C    16.43000031  16.39000130  53.43000031
C    17.46000099  16.46999931  52.51999664
C    18.75000000  15.98999977  52.85999680
C    19.81999969  16.02000046  51.90999985
C    21.04999924  15.48999977  52.22000122
C    21.25000000  14.73000050  53.40000153
C    20.22000122  14.61999989  54.29999924
C    18.95000076  15.21000004  54.05000305
C    15.01000023  16.67000008  53.29000092
C    14.30999947  16.45000076  54.50000000
C    12.92000008  16.46000099  54.55999756
C    22.65000153  14.39000034  53.87000275
H    22.84939766  14.81727791  54.85274124
H    18.04999924  14.68999958  55.94999695
H    17.36999893  16.77999878  51.47999573
H    19.59000015  16.48999977  50.96000290
H    21.91999817  15.59000015  51.58000183
H    20.38000107  14.29999924  55.33000183
H    12.35999966  16.21000099  55.45999908
H    23.29999924  14.88999939  53.13999939
H    22.81999969  13.30999947  53.93000031
