96

S    12.34000015  17.35000038  44.12000275
C     9.68999958  17.71999931  44.93000031
C    10.95999908  17.28000069  45.22999573
C    11.31999969  16.84000015  46.53999710
C    10.29999924  16.67000008  47.45999908
C     8.96000004  17.05000114  47.18999863
C     7.88999987  16.84000015  48.11000061
C     6.61000013  17.19000053  47.76000214
C     6.30999994  17.77000046  46.50000000
C     7.30000019  17.81999969  45.54999924
C     8.64999962  17.50000000  45.86000061
C    12.75000000  16.60000038  46.65000153
C    13.42000008  16.80999947  45.41999817
C    14.80000019  16.68000031  45.31999969
C     4.90999985  18.22999954  46.14999771
H     4.55433750  17.83877182  45.19682312
H     9.55000019  18.23999977  43.97999573
H    10.55999947  16.22999954  48.41999817
H     8.03999996  16.42000008  49.09999847
H     5.93999958  17.28999901  48.61000061
H     7.00999975  18.02999878  44.52000046
H    15.40999985  17.04000092  44.48999786
H     4.23999977  17.79999924  46.90999985
H     4.82999992  19.30999947  46.31999969
S    15.98000050  15.84000015  49.06000137
C    18.60999870  15.55999947  48.40999985
C    17.36999893  15.98999977  47.97000122
C    16.98999977  16.31000137  46.63000107
C    18.04999924  16.39000130  45.73999786
C    19.34000015  15.95000076  46.11999893
C    20.43000031  15.92000008  45.20000076
C    21.68999863  15.44000053  45.47999954
C    21.87999916  14.93999958  46.79000092
C    20.94000053  15.00000000  47.78999710
C    19.65999985  15.53999996  47.45999908
C    15.54999924  16.32999992  46.45000076
C    14.88999939  16.17000008  47.70000076
C    13.50999928  16.31000137  47.78999710
C    23.29000092  14.45000076  47.06999969
H    23.73024559  15.03225899  47.87948227
H    18.55999947  14.98999977  49.33000183
H    17.86000061  16.65999985  44.71000290
H    20.23999977  16.27000046  44.19000244
H    22.55000114  15.54999924  44.81999969
H    21.15999985  14.85999966  48.85000229
H    13.12000084  16.25000000  48.80000305
H    23.97000122  14.52000046  46.22000122
H    23.26999855  13.40999985  47.39999771
S    11.46999931  17.60000038  51.25000000
C     8.76000023  17.47999954  51.93000031
C    10.06999969  17.25000000  52.28000259
C    10.43000031  16.80999947  53.59000397
C     9.39999962  16.62999916  54.50000000
C     8.06999969  16.95999908  54.15999985
C     7.03000021  16.93000031  55.12000275
C     5.73000002  17.23999977  54.79999924
C     5.35000038  17.71999931  53.52000427
C     6.32999992  17.75000000  52.56000137
C     7.67000008  17.35999870  52.83000183
C    11.87999916  16.77999878  53.75999832
C    12.56000042  17.17000008  52.58999634
C    13.94999981  17.15999985  52.50999832
C     3.97000027  18.27000046  53.22999954
H     3.56582594  17.62473869  52.45001221
H     8.47000027  17.85000038  50.93999863
H     9.59000015  16.28000069  55.51000214
H     7.26000023  16.43000031  56.05999756
H     5.05999994  17.40999985  55.63999939
H     6.23000050  18.31999969  51.63999939
H    14.40999985  17.46999931  51.56999969
H     3.35000014  18.18000031  54.13000107
H     4.11000013  19.34999847  53.06000137
S    15.11999989  15.77999973  56.03000259
C    17.77000046  15.39999962  55.19000244
C    16.48999977  15.84000015  54.91000366
C    16.14999962  16.42000008  53.63999939
C    17.18000031  16.64999962  52.75000000
C    18.46999931  16.09000015  52.91999817
C    19.52999878  16.25000000  51.97999954
C    20.79000092  15.80000019  52.29999924
C    21.05999947  15.06999969  53.48999786
C    20.03999901  14.86999989  54.38999939
C    18.73999977  15.39000034  54.15000153
C    14.70999908  16.64999962  53.56999969
C    14.01000023  16.32999992  54.75999832
C    12.63000011  16.35000038  54.86999893
C    22.44999886  14.60000038  53.86000061
H    22.79125404  15.17586708  54.72024536
H    18.04999924  14.98999977  56.14999771
H    16.94000053  17.23999977  51.86999893
H    19.37000084  16.84999847  51.10000229
H    21.65999985  15.98000050  51.68000031
H    20.17999840  14.32999992  55.33000183
H    12.07999992  15.86999989  55.68000031
H    23.15000153  14.75000000  53.02999878
H    22.39999962  13.53000069  54.09000015
