96

S    12.18999958  17.35000038  44.52000046
C     9.51000023  17.71000099  45.31000137
C    10.76000023  17.20000076  45.56999969
C    11.14999962  16.68000031  46.84000015
C    10.13000011  16.46999931  47.75000000
C     8.82000065  16.93000031  47.50000000
C     7.69000006  16.69000053  48.34999847
C     6.47000027  17.25000000  48.08000183
C     6.17000008  18.02999878  46.93000031
C     7.22000027  18.20999908  46.04999924
C     8.47000027  17.59000015  46.26999664
C    12.58999920  16.53000069  47.02000046
C    13.28999996  16.87000084  45.83000183
C    14.68000031  16.77000046  45.75000000
C     4.77999973  18.34000015  46.44000244
H     4.45279169  17.75671577  45.57929611
H     9.31999969  18.15999985  44.34000015
H    10.21000004  15.82999992  48.61999893
H     7.92999983  16.13000107  49.25000000
H     5.58000040  16.94000053  48.63999939
H     7.02000046  18.78999901  45.14999771
H    15.22999954  17.06999969  44.86999893
H     4.09000015  18.17000008  47.28000259
H     4.79999971  19.43000031  46.33999634
S    15.76000023  15.57999992  49.43000031
C    18.38000107  15.26999950  48.61000061
C    17.13000107  15.76000023  48.31999969
C    16.79000092  16.36999893  47.06999969
C    17.79000092  16.36000061  46.11000061
C    19.11999893  15.93000031  46.33999634
C    20.10999870  15.88999939  45.31999969
C    21.40000153  15.51000023  45.59999847
C    21.70000076  14.96000099  46.88000107
C    20.69999886  14.78999996  47.80000305
C    19.40000153  15.34999943  47.63000107
C    15.34000015  16.46000099  46.93999863
C    14.65999985  16.05999947  48.11999893
C    13.27000046  16.04999924  48.13999939
C    23.09999847  14.55000019  47.29999924
H    23.39273643  14.87129593  48.29958725
H    18.55999947  14.65000057  49.47999954
H    17.42000008  16.50000000  45.10000229
H    19.90999985  16.21000099  44.29999924
H    22.20999908  15.84000015  44.94999695
H    20.94000053  14.40999985  48.79000092
H    12.71000004  15.67999935  49.00000000
H    23.78999901  14.93999958  46.52999878
H    23.19999886  13.45999908  47.25000000
S    15.85999966  12.96000004  52.43000031
C    18.50000000  12.46000099  51.59000015
C    17.14999962  12.35999966  51.36000061
C    16.63999939  11.79999924  50.14999771
C    17.56000137  11.28000069  49.25000000
C    18.96000099  11.42000008  49.41999817
C    19.92000008  10.93000031  48.48999786
C    21.27000046  11.05000019  48.72000122
C    21.75000000  11.54999924  49.95999908
C    20.85000038  12.07999992  50.84999847
C    19.44000053  12.03999996  50.61999893
C    15.22999954  12.07999992  49.93999863
C    14.68999958  12.63000011  51.12999725
C    13.34000015  12.90999985  51.25000000
C    23.09999847  11.05000019  50.41999817
H    23.34767914  11.34721565  51.43902588
H    18.88000107  12.97999954  52.47000122
H    17.20999908  11.00000000  48.26000214
H    19.55000114  10.51000023  47.56000137
H    21.98999786  10.47999954  48.15000153
H    21.09000015  12.38000011  51.86000061
H    13.03999996  13.17999935  52.25999832
H    23.26000023   9.96999931  50.30000305
H    23.85000038  11.57999992  49.80999756
S    11.90999985  12.11999989  47.61000061
C     9.26999950  12.81000042  48.40000153
C    10.62000084  12.72999954  48.66000366
C    11.11999989  13.03999996  49.97000122
C    10.26000023  13.50999928  50.94999695
C     8.88000011  13.67000008  50.68000031
C     7.97999954  14.13000011  51.68000031
C     6.61999989  14.09999943  51.49000168
C     6.07999992  13.78999901  50.20999908
C     6.96000004  13.36999989  49.23999786
C     8.36000061  13.19000053  49.41999817
C    12.55000019  12.81000042  50.10000229
C    13.10999966  12.28999996  48.89999771
C    14.42000008  11.84999943  48.81999969
C     4.63000011  14.02999973  49.86000061
H     4.43121815  13.73182678  48.83059311
H     8.92000008  12.48999977  47.42000198
H    10.67999935  13.93000031  51.86000061
H     8.36999989  14.55999947  52.60000229
H     5.89999962  14.44000053  52.22999954
H     6.63999987  13.36999989  48.20000076
H    14.85000038  11.52999973  47.87000275
H     4.42000008  15.07999992  50.07999802
H     3.81000018  13.57999992  50.44000244
