96

S    12.00000000  17.38999939  44.15000153
C     9.40999985  17.89999962  45.06000137
C    10.60999966  17.25000000  45.25000000
C    10.97000027  16.80999947  46.56000137
C    10.01000023  16.76000023  47.55000305
C     8.73000050  17.32999992  47.36000061
C     7.63999987  17.35000038  48.27000046
C     6.32999992  17.64000130  47.95999908
C     6.07999992  18.19000053  46.68000031
C     7.11999989  18.39999962  45.79999924
C     8.43000031  17.93000031  46.07999802
C    12.38999939  16.48999977  46.69000244
C    13.02000046  16.70999908  45.44000244
C    14.37999916  16.56999969  45.21999741
C     4.69000006  18.53000069  46.18000031
H     4.28591919  17.72183800  45.57033539
H     9.22000027  18.36000061  44.09999847
H    10.22999954  16.31000137  48.52000427
H     7.77999973  16.76000023  49.18000031
H     5.59000015  17.36999893  48.70999908
H     6.96000004  18.68999863  44.75999832
H    14.80000019  17.05000114  44.34999847
H     4.05999994  18.55999947  47.06999969
H     4.76999998  19.47000122  45.61999893
S    15.57000065  15.77000046  48.95000076
C    18.22999954  15.54999924  48.33000183
C    16.97000122  15.80999947  47.84999847
C    16.64999962  16.25000000  46.52999878
C    17.70000076  16.39999962  45.63999939
C    19.03000069  16.13000107  46.04000092
C    20.09000015  16.02000046  45.10000229
C    21.28999901  15.40999985  45.38000107
C    21.61999893  15.21999931  46.75000000
C    20.61000061  15.26999950  47.68000031
C    19.27999878  15.67999935  47.38999939
C    15.21000004  16.31000137  46.32999802
C    14.52999973  16.13999939  47.56000137
C    13.17000008  16.27000046  47.83000183
C    23.00000000  14.73000050  47.11000061
H    23.41214752  15.29137421  47.94850922
H    18.42000008  15.08999920  49.29999924
H    17.48999977  16.59000015  44.59000015
H    19.93000031  16.31000137  44.06999969
H    22.07999992  15.25000000  44.65999985
H    20.82999992  14.80000019  48.62999725
H    12.81999969  16.29999924  48.86000061
H    23.59999847  14.80999947  46.18999863
H    22.86999893  13.68999958  47.41000366
S    12.05999947  17.32999992  50.86999893
C     9.39999962  17.71000099  51.66999817
C    10.65000057  17.20000076  51.93000031
C    10.97000027  16.61999893  53.20000076
C     9.96999931  16.47999954  54.13999939
C     8.64999962  16.87999916  53.81000137
C     7.60999966  16.80999947  54.79000092
C     6.34999990  17.32999992  54.61000061
C     6.06999969  18.04000092  53.40999985
C     7.04999971  18.18000031  52.45999908
C     8.34000015  17.61000061  52.61000061
C    12.41000080  16.46999931  53.40999985
C    13.07999992  16.69999886  52.18000031
C    14.47000027  16.69999886  52.09999847
C     4.63000011  18.35000038  53.04999924
H     4.20874548  17.75024796  52.24319077
H     9.22000027  18.31999969  50.79000092
H    10.27999973  16.15999985  55.13000107
H     7.86000013  16.43000031  55.77000046
H     5.55999994  17.11000061  55.31000137
H     6.74000025  18.68999863  51.55000305
H    15.01000023  17.15999985  51.27999878
H     4.00000000  18.29000092  53.95000076
H     4.63000011  19.38999939  52.70999908
S    15.54999924  15.72999954  55.84999847
C    18.18000031  15.40999985  55.04000092
C    16.90999985  15.80000019  54.71000290
C    16.59000015  16.28000069  53.40000153
C    17.56000137  16.40999985  52.42000198
C    18.81999969  15.82999992  52.72999573
C    19.77000046  15.72999954  51.66999817
C    21.02000046  15.21000004  51.91999817
C    21.38000107  14.70999908  53.20000076
C    20.43999863  14.70000076  54.20999908
C    19.17000008  15.31000042  54.02000046
C    15.14000034  16.38000107  53.29000092
C    14.46000004  16.09000015  54.48999786
C    13.07000065  16.13999939  54.59000015
C    22.80999947  14.55000019  53.63999939
H    23.02445984  15.13618946  54.53358078
H    18.45999908  15.00000000  56.00999832
H    17.32999992  16.77999878  51.43000031
H    19.50000000  16.15999985  50.70999908
H    21.78999901  15.39999962  51.18000031
H    20.69000053  14.37999916  55.21999741
H    12.55000019  15.95999908  55.52999878
H    23.44000053  14.78999996  52.77000046
H    22.96999931  13.52000046  53.97999573
