96

S    12.06999969  16.97000122  43.97999573
C     9.38000011  17.35999870  44.79999924
C    10.69000053  17.02999878  45.07999802
C    10.98999977  16.54999924  46.39999771
C    10.00000000  16.45000076  47.36000061
C     8.65999985  16.87000084  47.16999817
C     7.60999966  16.87000084  48.11999893
C     6.37000036  17.39999962  47.84000015
C     6.17000008  17.94999886  46.53999710
C     7.11000013  17.85000038  45.54999924
C     8.39999962  17.31999969  45.83000183
C    12.42000008  16.36999893  46.59999847
C    13.09000015  16.53000069  45.37000275
C    14.47999954  16.45000076  45.31000137
C     4.80999994  18.51000023  46.18000031
H     4.38349533  17.85602570  45.41939926
H     9.15000057  17.75000000  43.81000137
H    10.26999950  16.10000038  48.34999847
H     7.68000031  16.36999893  49.09000015
H     5.60999966  17.50000000  48.61000061
H     6.90999985  18.17000008  44.52999878
H    14.98000050  16.63999939  44.36999893
H     4.07999992  18.68000031  46.97999954
H     4.96000004  19.50000000  45.72999954
S    15.65000057  15.53999996  48.96999741
C    18.22999954  15.19999981  48.29000092
C    17.02000046  15.71000004  47.87000275
C    16.67000008  16.09000015  46.52999878
C    17.73999977  16.18000031  45.65999985
C    19.03000069  15.73999977  46.04000092
C    20.12000084  15.85000038  45.13000107
C    21.31999969  15.29999924  45.52000046
C    21.56999969  14.68999958  46.77999878
C    20.59000015  14.78000069  47.75000000
C    19.30999947  15.26000023  47.36999893
C    15.21999931  16.21000099  46.46999741
C    14.52000046  15.98999977  47.68000031
C    13.12999916  16.02000046  47.76000214
C    22.95999908  14.19999981  47.11999893
H    23.37973404  14.80470371  47.92390060
H    18.40999985  14.75000000  49.26000214
H    17.57999992  16.40999985  44.61000061
H    19.93999863  16.18000031  44.10999680
H    21.98999786  15.25000000  44.68000031
H    20.86000061  14.34000015  48.69999695
H    12.64999962  15.98999977  48.73000336
H    23.61000061  14.19000053  46.24000168
H    22.93999863  13.17000008  47.50000000
S    12.00000000  17.46999931  50.81999969
C     9.28999996  17.64999962  51.46999741
C    10.57999992  17.38000107  51.86999893
C    10.98000050  17.11000061  53.22000122
C     9.94000053  16.97000122  54.13000107
C     8.60000038  17.28999901  53.81999969
C     7.51999950  17.28000069  54.75000000
C     6.28000021  17.76000023  54.40000153
C     5.96000004  18.15999985  53.06999969
C     6.97000027  18.09000015  52.12999725
C     8.28999996  17.70000076  52.47000122
C    12.39999962  16.84999847  53.39000320
C    13.09000015  17.05999947  52.15999985
C    14.42999935  16.69000053  52.09999847
C     4.56999969  18.50000000  52.61000061
H     4.19256401  18.02286339  51.70557785
H     9.00000000  17.71999931  50.43000031
H    10.11000061  16.72000122  55.18000031
H     7.88000011  17.13000107  55.76000214
H     5.60999966  17.94000053  55.22999573
H     6.77999973  18.36000061  51.10000229
H    14.88999939  16.87000084  51.13999939
H     3.98000002  18.25000000  53.50000000
H     4.59000015  19.60000038  52.54000092
S    15.50000000  15.76000023  55.84000015
C    18.18000031  15.52999973  55.00999832
C    16.87000084  15.78999996  54.71000290
C    16.55999947  16.04999924  53.34000015
C    17.48999977  15.98999977  52.30999756
C    18.84000015  15.69000053  52.63000107
C    19.88999939  15.80000019  51.66999817
C    21.15999985  15.43000031  52.02000046
C    21.48999977  15.21999931  53.39000320
C    20.53999901  15.22999954  54.38000107
C    19.18000031  15.44999981  54.01000214
C    15.14999962  16.38000107  53.26000214
C    14.45000076  16.21000099  54.48999786
C    13.09000015  16.50000000  54.54999924
C    22.95000076  15.01000023  53.72000122
H    23.25596809  15.57212734  54.60232544
H    18.39999962  15.34000015  56.05999756
H    17.19000053  16.28999901  51.31999969
H    19.76000023  16.31000137  50.72000122
H    21.97000122  15.53999996  51.30000305
H    20.81000137  14.93999958  55.38999939
H    12.51999950  16.39000130  55.47000122
H    23.68999863  15.08999920  52.90999985
H    23.00000000  13.96000004  54.06000137
