96

S    12.01000023  16.75000000  44.16999817
C     9.31999969  17.11000061  44.97000122
C    10.62000084  16.79999924  45.27000046
C    10.95999908  16.23999977  46.55000305
C     9.96999931  16.23999977  47.51999664
C     8.61999989  16.54999924  47.25000000
C     7.59999990  16.61999893  48.23999786
C     6.30999994  16.98999977  47.93000031
C     5.98999977  17.35999870  46.59999847
C     6.96000004  17.39999962  45.61999893
C     8.27000046  16.93000031  45.90999985
C    12.38999939  16.00000000  46.65000153
C    13.12999916  16.38000107  45.50000000
C    14.52000046  16.42000008  45.45999908
C     4.59000015  17.79000092  46.19999695
H     4.15016556  17.15152931  45.43383789
H     9.15999985  17.81999969  44.15999985
H    10.21999931  15.81999969  48.48999786
H     7.88999987  16.22999954  49.20999908
H     5.49000025  16.93000031  48.63999939
H     6.83000040  17.86999893  44.65000153
H    15.03999901  16.62999916  44.52999878
H     3.98000002  17.71999931  47.11000061
H     4.53000021  18.85000038  45.93999863
S    15.59000015  15.44999981  49.15999985
C    18.25000000  15.07999992  48.39000320
C    16.97999954  15.52000046  48.06999969
C    16.64999962  15.90000057  46.72999954
C    17.68000031  15.88999939  45.80999756
C    19.00000000  15.44999981  46.07999802
C    20.02000046  15.47999954  45.07999802
C    21.31000137  15.25000000  45.47000122
C    21.63999939  14.96999931  46.81999969
C    20.65999985  14.86999989  47.78999710
C    19.30999947  15.13000011  47.44999695
C    15.21000004  16.04999924  46.62000275
C    14.50000000  15.65999985  47.77999878
C    13.10999966  15.57999992  47.77000046
C    23.08000183  14.67000008  47.15999985
H    23.33579445  15.05369091  48.14764786
H    18.37000084  14.63999939  49.36999893
H    17.40999985  16.22999954  44.80999756
H    19.70999908  15.73999977  44.06999969
H    22.07999992  15.36999893  44.71000290
H    20.85000038  14.52999973  48.81000137
H    12.57999992  15.26000023  48.66000366
H    23.65999985  15.21999931  46.40999603
H    23.36999893  13.61999989  47.06999969
S    15.80000019  12.98999977  52.18000031
C    18.47999954  12.48000050  51.43000031
C    17.13000107  12.43000031  51.13999939
C    16.62999916  12.05000019  49.86000061
C    17.53999901  11.61000061  48.92000198
C    18.92000008  11.54000092  49.22000122
C    19.88999939  11.25000000  48.22000122
C    21.24000168  11.25000000  48.47999954
C    21.70000076  11.51999950  49.79999924
C    20.81000137  11.87999916  50.77999878
C    19.42000008  11.92999935  50.51000214
C    15.19000053  12.22000027  49.72000122
C    14.57999992  12.64999962  50.93000031
C    13.22999954  12.92000008  51.07999802
C    23.12999916  11.16000080  50.15999603
H    23.32878113  11.28068924  51.22489929
H    18.89999962  12.86999893  52.35000229
H    17.05000114  11.38000011  47.97999954
H    19.43000031  10.88000107  47.30999756
H    21.94999886  10.85000038  47.76000214
H    21.14999962  12.06999969  51.79999924
H    12.69000053  13.23999977  51.97000122
H    23.31999969  10.14000034  49.81999969
H    23.82999802  11.78999996  49.59999847
S    11.72999954  11.98999977  47.49000168
C     9.13999939  12.68000031  48.40999985
C    10.50000000  12.68000031  48.56999969
C    11.00000000  12.98999977  49.87999725
C    10.14999962  13.30999947  50.91999817
C     8.75000000  13.36999989  50.73999786
C     7.88000011  13.96999931  51.69000244
C     6.58999968  14.32000065  51.36000061
C     6.03999996  13.89000034  50.13000107
C     6.84000015  13.27000046  49.19000244
C     8.23999977  13.10999966  49.41999817
C    12.43000031  12.74000072  49.93999863
C    12.96000004  12.15000057  48.75999832
C    14.32999992  11.92999935  48.66000366
C     4.56999969  14.09999943  49.85000229
H     4.31304598  13.72884369  48.85787582
H     8.67999935  12.35000038  47.48000336
H    10.62999916  13.50000000  51.88000107
H     8.28999996  14.15999985  52.68000031
H     5.95000029  14.89999962  52.02000046
H     6.52999973  13.07000065  48.16999817
H    14.63999939  11.46000004  47.72999573
H     4.42999983  15.19000053  49.89999771
H     3.94000006  13.57999992  50.58000183
