96

S    12.13999939  16.32999992  44.29000092
C     9.43000031  16.61999893  45.02999878
C    10.71000004  16.25000000  45.34000015
C    11.06999969  15.98000050  46.70999908
C    10.08999920  15.85999966  47.68000031
C     8.75000000  16.18999863  47.36000061
C     7.67000008  16.20000076  48.29000092
C     6.38999987  16.60000038  47.97999954
C     6.19000006  17.22999954  46.72999954
C     7.17000008  17.23999977  45.76000214
C     8.45000076  16.69999886  46.04999924
C    12.51000023  15.88999939  46.83000183
C    13.26000023  16.13000107  45.65000153
C    14.63999939  16.00000000  45.59000015
C     4.76999998  17.64000130  46.39999771
H     4.43009377  17.16554832  45.47942352
H     9.22999954  17.02000046  44.02999878
H    10.39000034  15.64000034  48.69999695
H     7.92000008  15.85999966  49.29000092
H     5.51999998  16.43000031  48.61999893
H     7.03000021  17.59000015  44.73999786
H    15.15999985  16.26000023  44.68000031
H     4.15999985  17.52000046  47.29999924
H     4.82999992  18.71000099  46.18999863
S    15.67000008  14.81999969  49.20999908
C    18.38000107  14.52000046  48.52000427
C    17.12000084  14.93999958  48.18999863
C    16.79999924  15.47999954  46.90000153
C    17.81999969  15.65000057  45.97999954
C    19.14999962  15.29999924  46.32999802
C    20.13000107  15.31999969  45.30000305
C    21.44000053  14.96000099  45.52000046
C    21.75000000  14.47999954  46.81999969
C    20.79999924  14.32000065  47.80000305
C    19.45999908  14.73999977  47.62000275
C    15.36999893  15.69000053  46.75000000
C    14.60000038  15.36000061  47.88999939
C    13.22000027  15.44999981  47.95999908
C    23.22999954  14.32999992  47.12999725
H    23.52228546  14.55099487  48.15655899
H    18.42000008  14.11999893  49.52999878
H    17.53999901  15.84000015  44.94999695
H    19.88000107  15.62000084  44.27999878
H    22.21999931  15.03000069  44.77000427
H    21.21999931  13.90999985  48.72000122
H    12.69000053  15.17000008  48.86000061
H    23.84000015  14.96999931  46.47999573
H    23.50000000  13.31999969  46.81000137
S    11.95000076  16.72999954  50.89000320
C     9.35999966  17.50000000  51.72000122
C    10.62000084  17.05999947  52.02999878
C    10.88000107  16.52000046  53.33000183
C     9.84000015  16.45000076  54.25000000
C     8.52000046  16.86000061  53.95999908
C     7.49000025  16.82999992  54.94999695
C     6.21999979  17.17000008  54.54999924
C     5.96000004  17.70000076  53.26000214
C     6.97000027  17.82999992  52.32999802
C     8.28999996  17.42000008  52.64999771
C    12.28999996  16.18999863  53.47999954
C    13.01000023  16.40999985  52.28000259
C    14.39000034  16.54000092  52.28000259
C     4.55999994  18.15999985  52.93000031
H     4.18963766  17.49049759  52.15366364
H     9.07999992  17.75000000  50.70000076
H    10.10000038  15.88999939  55.13999939
H     7.65999985  16.40999985  55.93999863
H     5.40999985  16.95999908  55.24000168
H     6.76999998  18.02999878  51.27999878
H    14.86999989  16.47999954  51.30000305
H     3.91000009  18.07999992  53.80000305
H     4.55000019  19.22999954  52.64999771
S    15.39999962  15.59999943  56.00999832
C    18.11000061  15.29000092  55.27000046
C    16.80999947  15.59000015  54.93000031
C    16.48999977  15.95000076  53.57999802
C    17.43999863  15.98000050  52.57999802
C    18.75000000  15.53999996  52.90000153
C    19.64999962  15.36000061  51.81000137
C    20.93000031  14.96000099  52.11000061
C    21.32999802  14.73999977  53.46000290
C    20.48000145  14.96000099  54.52000046
C    19.11999893  15.31999969  54.27000046
C    15.07999992  16.31000137  53.47000122
C    14.34000015  15.97000027  54.62999725
C    12.94999981  15.98000050  54.68999863
C    22.78000069  14.42000008  53.73000336
H    23.10701370  14.86786842  54.66839218
H    18.44000053  15.07999992  56.27999878
H    17.27000046  16.32999992  51.56999969
H    19.30999947  15.50000000  50.79000092
H    21.68000031  15.01999950  51.32999802
H    20.81000137  14.70000076  55.52000046
H    12.34000015  15.84000015  55.58000183
H    23.36000061  14.70999908  52.84999847
H    22.86000061  13.31999969  53.75000000
