96

S    12.01000023  17.12000084  44.45000076
C     9.36999989  17.61000061  45.27000046
C    10.60999966  17.06999969  45.52999878
C    10.86999989  16.54000092  46.84000015
C     9.89000034  16.47999954  47.81999969
C     8.60000038  16.95999908  47.50000000
C     7.50000000  16.81999969  48.39000320
C     6.25000000  17.25000000  48.01000214
C     5.98999977  17.84000015  46.73999786
C     7.03000021  18.04000092  45.86999893
C     8.31999969  17.53999901  46.20999908
C    12.28000069  16.18999863  46.90999985
C    13.03999996  16.54000092  45.77000046
C    14.42000008  16.67000008  45.75000000
C     4.56999969  18.15000153  46.31000137
H     4.15076399  17.47496033  45.56390381
H     9.15999985  18.15000153  44.34000015
H    10.24000072  16.10999870  48.77999878
H     7.62000036  16.25000000  49.31000137
H     5.40000010  17.15999985  48.68000031
H     6.84000015  18.52000046  44.91000366
H    14.96999931  16.75000000  44.80999756
H     3.95000005  18.12999916  47.21000290
H     4.59000015  19.22999954  46.10000229
S    15.47999954  15.47000027  49.31000137
C    18.20000076  15.26999950  48.61999893
C    16.90000153  15.52000046  48.26000214
C    16.55999947  16.07999992  46.97999954
C    17.54999924  16.25000000  46.02000427
C    18.85000038  15.75000000  46.26999664
C    19.89999962  15.77000046  45.31000137
C    21.17000198  15.34999943  45.63000107
C    21.50000000  14.89999962  46.93999863
C    20.52000046  14.88000011  47.90000153
C    19.19000053  15.29999924  47.60000229
C    15.14000034  16.36999893  46.90999985
C    14.37000084  16.04999924  48.06000137
C    12.97999954  15.98000050  48.11000061
C    22.90999985  14.44000053  47.23999786
H    23.15961838  14.85365295  48.21707535
H    18.31999969  14.70000076  49.54000092
H    17.25000000  16.63999939  45.06000137
H    19.64999962  16.04999924  44.29000092
H    21.94000053  15.39000034  44.86999893
H    20.72999954  14.51000023  48.88999939
H    12.35000038  15.86999989  48.99000168
H    23.59000015  14.88999939  46.51000214
H    22.98999977  13.35000038  47.23999786
S    11.87000084  17.28000069  51.16000366
C     9.15999985  17.52000046  51.72000122
C    10.39999962  17.06999969  52.12999725
C    10.75000000  16.72000122  53.47000122
C     9.67000008  16.64999962  54.33000183
C     8.34000015  17.01000023  53.97999573
C     7.27999973  16.98999977  54.92000198
C     6.02999973  17.42000008  54.54000092
C     5.78999996  17.92000008  53.22999954
C     6.78999996  17.94999886  52.29000092
C     8.10000038  17.53999901  52.65999603
C    12.17000008  16.45000076  53.63999939
C    12.93000031  16.79000092  52.49000168
C    14.30999947  16.63999939  52.37999725
C     4.42999983  18.51000023  52.93000031
H     4.17476416  18.07042694  51.96577454
H     9.09000015  17.98999977  50.73999786
H     9.85000038  16.11999893  55.25000000
H     7.59999990  16.47999954  55.81999969
H     5.23000002  17.52000046  55.26000214
H     6.69000053  18.34000015  51.26999664
H    14.81999969  16.90999985  51.46999741
H     3.75000000  18.30999947  53.75000000
H     4.53999996  19.60000038  52.88000107
S    15.34000015  15.62999916  56.07999802
C    18.05999947  15.26999950  55.43000031
C    16.79999924  15.70000076  55.07999802
C    16.43000031  16.14999962  53.76999664
C    17.45000076  16.38000107  52.87000275
C    18.78000069  16.06999969  53.20999908
C    19.84000015  16.25000000  52.27000427
C    21.12999916  15.88999939  52.57999802
C    21.42999840  15.32999992  53.85000229
C    20.43000031  15.08999920  54.75999832
C    19.07999992  15.39000034  54.43999863
C    15.00000000  16.35000038  53.56999969
C    14.26000023  16.13000107  54.75999832
C    12.86999893  16.10999870  54.80999756
C    22.80999947  14.80000019  54.16999817
H    23.26478386  15.38979721  54.96586990
H    18.37000084  14.93000031  56.40999603
H    17.15999985  16.72999954  51.88000107
H    19.68000031  16.45000076  51.20999908
H    21.87999916  15.85999966  51.79000092
H    20.65999985  14.72000027  55.76000214
H    12.28999996  15.90999985  55.70000076
H    23.36999893  14.86999989  53.22999954
H    22.72000122  13.73999977  54.45000076
