96

S    12.13000107  16.87999916  44.31999969
C     9.44999981  17.26000023  45.05000305
C    10.69000053  16.75000000  45.35999680
C    11.10000038  16.32999992  46.65999985
C    10.11000061  16.32999992  47.63000107
C     8.78000069  16.72000122  47.36999893
C     7.75000000  16.63999939  48.34999847
C     6.44000006  16.97000122  48.09999847
C     6.14000034  17.45000076  46.79999924
C     7.09999990  17.57999992  45.83000183
C     8.45000076  17.19000053  46.04999924
C    12.53999901  16.27000046  46.88000107
C    13.22999954  16.59000015  45.68999863
C    14.60999966  16.48999977  45.61000061
C     4.71000004  17.79000092  46.45000076
H     4.43983459  17.29232788  45.51863861
H     9.21000004  17.73999977  44.09999847
H    10.39999962  16.06999969  48.64999771
H     7.97999954  16.20000076  49.31000137
H     5.73000002  17.05000114  48.92000198
H     6.90000010  17.94999886  44.81999969
H    15.15999985  16.84999847  44.75000000
H     3.98000002  17.53000069  47.22999954
H     4.59000015  18.88000107  46.39999771
S    15.75000000  15.48999977  49.26000214
C    18.38999939  14.85999966  48.41999817
C    17.13999939  15.39000034  48.15999985
C    16.77000046  15.82999992  46.84999847
C    17.77000046  16.01000023  45.91999817
C    19.11000061  15.62999916  46.20999908
C    20.17999840  15.77999973  45.27999878
C    21.42000008  15.27999973  45.58000183
C    21.65999985  14.65000057  46.83000183
C    20.66999817  14.37000084  47.74000168
C    19.38999939  14.92000008  47.42000198
C    15.34000015  16.10000038  46.73999786
C    14.63000107  15.90000057  47.94000244
C    13.25000000  16.00000000  48.06000137
C    23.08000183  14.25000000  47.11999893
H    23.46334076  14.78951740  47.98606491
H    18.67000008  14.40999985  49.36000061
H    17.47999954  16.46000099  44.97000122
H    19.97999954  16.54999924  44.52999878
H    22.26000023  15.36999893  44.88999939
H    20.71000099  13.64999962  48.54999924
H    12.76000023  15.67999935  48.97999573
H    23.61000061  14.55000019  46.20999908
H    23.16999817  13.17000008  47.29999924
S    11.87000084  17.32999992  50.84000015
C     9.17000008  17.47999954  51.58000183
C    10.44000053  17.02000046  51.84000015
C    10.82999992  16.47999954  53.11000061
C     9.84000015  16.36999893  54.06999969
C     8.55000019  16.92000008  53.89999771
C     7.55999994  16.88999939  54.93000031
C     6.30999994  17.38999939  54.66999817
C     5.92000008  17.69000053  53.34000015
C     6.84999990  17.84000015  52.34000397
C     8.19000053  17.43000031  52.60000229
C    12.27000046  16.46000099  53.30999756
C    12.97000027  16.90000153  52.15999985
C    14.35999966  16.90000153  52.14000320
C     4.44000006  17.86000061  53.06000137
H     4.16163349  17.41746902  52.10356140
H     8.97000027  18.02999878  50.65999985
H    10.13000011  15.93999958  55.02999878
H     7.73999977  16.40999985  55.89000320
H     5.59999990  17.54999924  55.47000122
H     6.61000013  18.22999954  51.35000229
H    14.88999939  17.27000046  51.26999664
H     3.75999975  17.47999954  53.82999802
H     4.17000008  18.92000008  53.04000092
S    15.34999943  15.48999977  55.79000092
C    18.04000092  15.25000000  55.13999939
C    16.79000092  15.71000004  54.78000259
C    16.50000000  16.26000023  53.48999786
C    17.53999901  16.32999992  52.57999802
C    18.82999992  15.84000015  52.88999939
C    19.96000099  15.93000031  52.04000092
C    21.24000168  15.60999966  52.42000198
C    21.44000053  14.88999939  53.62999725
C    20.38000107  14.73999977  54.48999786
C    19.09000015  15.26000023  54.18000031
C    15.07999992  16.46000099  53.27000046
C    14.37000084  16.11999893  54.45000076
C    12.97999954  16.18000031  54.48999786
C    22.84000015  14.59000015  54.12000275
H    23.04635048  15.15212727  55.03078842
H    18.13999939  14.80000019  56.11999893
H    17.32999992  16.56999969  51.53999710
H    19.82999992  16.32999992  51.04000092
H    22.15999985  15.82999992  51.88999939
H    20.59999847  14.34999943  55.47999954
H    12.43000031  15.90999985  55.38000107
H    23.59000015  14.89999962  53.37999725
H    23.02999878  13.52000046  54.25000000
