96

S    11.95000076  16.43000031  44.52999878
C     9.30999947  16.87999916  45.28999710
C    10.55999947  16.42000008  45.63999939
C    10.95000076  16.18000031  46.98999786
C     9.98999977  16.20000076  47.98999786
C     8.64999962  16.46999931  47.63999939
C     7.62000036  16.31999969  48.60000229
C     6.32999992  16.73999977  48.36000061
C     6.06999969  17.27000046  47.06999969
C     6.97000027  17.23999977  46.03000259
C     8.30999947  16.86000061  46.29000092
C    12.38999939  15.98000050  47.14000320
C    13.04999924  16.17000008  45.90000153
C    14.42000008  16.06999969  45.75000000
C     4.67000008  17.78000069  46.79999924
H     4.32928848  17.13406944  45.99081039
H     9.02000046  17.27000046  44.31000137
H    10.22999954  15.95999908  49.02000046
H     7.88000011  15.95000076  49.59000015
H     5.53999996  16.95000076  49.09000015
H     6.84000015  17.64999962  45.02999878
H    14.94999981  16.26000023  44.81999969
H     3.91999984  17.61000061  47.57999802
H     4.63000011  18.85000038  46.56999969
S    15.64000034  15.31000042  49.45000076
C    18.31999969  15.14000034  48.67000198
C    17.04000092  15.53999996  48.37999725
C    16.60000038  15.82999992  47.04999924
C    17.52000046  15.72000027  46.02000427
C    18.88000107  15.47000027  46.31000137
C    19.88999939  15.25000000  45.33000183
C    21.14999962  14.80000019  45.65000153
C    21.55999947  14.47000027  46.97000122
C    20.65000153  14.80000019  47.95000076
C    19.30999947  15.15999985  47.64999771
C    15.14999962  16.01000023  46.93999863
C    14.50000000  15.77999973  48.18000031
C    13.10999966  15.71000004  48.30999756
C    22.96999931  14.13000011  47.39999771
H    23.13344765  14.42136383  48.43753815
H    18.59000015  14.84000015  49.68000031
H    17.11000061  15.84000015  45.01999664
H    19.55000114  15.31000042  44.29999924
H    21.93000031  14.89999962  44.89999771
H    20.93000031  14.61999989  48.99000168
H    12.61999989  15.59000015  49.27000046
H    23.68000031  14.65999985  46.75000000
H    23.05999947  13.03999996  47.34000397
S    11.64000034  16.48999977  51.59999847
C     9.07999992  17.17000008  52.36000061
C    10.24000072  16.52000046  52.68000031
C    10.54999924  16.21000099  54.05000305
C     9.56999969  16.47999954  54.99000168
C     8.32999992  17.07999992  54.66999817
C     7.20000029  17.13999939  55.54000092
C     5.98000002  17.64000130  55.14999771
C     5.69000006  17.97999954  53.80000305
C     6.76000023  17.88999939  52.93000031
C     8.05999947  17.45000076  53.30999756
C    11.98999977  16.10000038  54.23999786
C    12.69000053  16.28000069  53.02000046
C    14.07999992  16.32999992  52.95999908
C     4.28999996  18.35000038  53.39000320
H     4.02679348  17.74533653  52.52212906
H     8.82000065  17.54999924  51.37000275
H     9.55999947  15.98000050  55.96000290
H     7.30999994  16.67000008  56.51000214
H     5.23999977  17.79000092  55.93000031
H     6.53999996  18.12999916  51.88999939
H    14.67000008  16.43000031  52.05999756
H     3.61999989  18.02999878  54.19000244
H     4.02999973  19.40999985  53.23999786
S    15.15999985  15.65999985  56.72000122
C    17.85000038  15.31999969  56.00999832
C    16.56999969  15.65999985  55.63999939
C    16.23999977  15.97000027  54.27999878
C    17.25000000  16.06999969  53.34000015
C    18.54999924  15.65000057  53.72000122
C    19.63000107  15.80999947  52.81000137
C    20.93000031  15.50000000  53.15000153
C    21.21999931  14.98000050  54.43999863
C    20.20999908  14.78999996  55.35999680
C    18.89000130  15.21000004  55.05000305
C    14.80999947  16.18999863  54.13999939
C    14.07999992  15.93999958  55.33000183
C    12.69999981  15.90999985  55.43000031
C    22.67000008  14.73000050  54.75000000
H    22.96208000  15.03632641  55.75446701
H    18.02000046  15.14000034  57.06999969
H    17.02000046  16.43000031  52.34000397
H    19.51000023  16.39999962  51.90999985
H    21.77000046  15.82999992  52.54000092
H    20.30999947  14.30999947  56.32999802
H    12.20000076  15.80000019  56.38999939
H    23.36999893  15.26999950  54.09999847
H    22.88999939  13.66000080  54.64000320
