96

S    12.17000008  16.80999947  44.36000061
C     9.55000019  17.35999870  45.17000198
C    10.80999947  16.90999985  45.48999786
C    11.23999977  16.59000015  46.81999969
C    10.31000042  16.44000053  47.83000183
C     8.97999954  16.84000015  47.56999969
C     7.92000008  16.82999992  48.50999832
C     6.67000008  17.34000015  48.22999954
C     6.32000017  17.79000092  46.93000031
C     7.30999994  17.75000000  45.97999954
C     8.61999989  17.26000023  46.24000168
C    12.67000008  16.32999992  46.95999908
C    13.28999996  16.52000046  45.70000076
C    14.68000031  16.55999947  45.61999893
C     4.94999981  18.30000114  46.52000046
H     4.60299206  17.71220970  45.67018509
H     9.35999966  17.81999969  44.20000076
H    10.53999996  15.88999939  48.74000168
H     8.14999962  16.32999992  49.45000076
H     5.92999983  17.28999901  49.02000046
H     7.09000015  18.07999992  44.97000122
H    15.15999985  16.87999916  44.69999695
H     4.23999977  18.35000038  47.35000229
H     4.92999983  19.34000015  46.17000198
S    15.95000076  15.76000023  49.25000000
C    18.60999870  15.39000034  48.39000320
C    17.29999924  15.67999935  48.09999847
C    16.95999908  16.02000046  46.75000000
C    17.90999985  16.17000008  45.76000214
C    19.25000000  15.84000015  46.06999969
C    20.29999924  15.77999973  45.10000229
C    21.52000046  15.19999981  45.34000015
C    21.87000084  14.80000019  46.65999985
C    20.92000008  14.88000011  47.64999771
C    19.62000084  15.42000008  47.39999771
C    15.52000046  16.22999954  46.69000244
C    14.81999969  16.02000046  47.90000153
C    13.45000076  16.03999901  48.08000183
C    23.28000069  14.40000057  47.04000092
H    23.57176781  14.86967564  47.97935104
H    18.86999893  15.11000061  49.40999985
H    17.64000130  16.61999893  44.80999756
H    20.06999969  16.13999939  44.09999847
H    22.17000008  15.22999954  44.47000122
H    21.12999916  14.47000027  48.62999725
H    13.02999973  15.86999989  49.06999969
H    23.97999954  14.73999977  46.26999664
H    23.26000023  13.30999947  47.11999893
S    11.64000034  17.20000076  51.22000122
C     9.02000046  17.76000023  52.09999847
C    10.27999973  17.27000046  52.35000229
C    10.59000015  16.73999977  53.64999771
C     9.55000019  16.61000061  54.54999924
C     8.22000027  17.02000046  54.29999924
C     7.14999962  16.88999939  55.21999741
C     5.88000011  17.27000046  54.86999893
C     5.60999966  17.94000053  53.63999939
C     6.61999989  18.04000092  52.70999908
C     7.95000029  17.61999893  53.02000046
C    12.02999973  16.54000092  53.75999832
C    12.71999931  16.69999886  52.52999878
C    14.09999943  16.57999992  52.43999863
C     4.19000006  18.29000092  53.25000000
H     4.06214619  18.06270599  52.19165802
H     8.80999947  18.22999954  51.13999939
H     9.78999996  16.22999954  55.54000092
H     7.27999973  16.54999924  56.25000000
H     5.05000019  17.06999969  55.54000092
H     6.48999977  18.53999901  51.76000214
H    14.59000015  16.82999992  51.50000000
H     3.45000005  17.79000092  53.87000275
H     4.13000011  19.37000084  53.47000122
S    15.31000042  15.95999908  56.13999939
C    17.98999977  15.55999947  55.45000076
C    16.69999886  15.84000015  55.05000305
C    16.31000137  16.11999893  53.69999695
C    17.30999947  16.22999954  52.75000000
C    18.64999962  16.03999901  53.15000153
C    19.69000053  16.00000000  52.16999817
C    20.98999977  15.64000034  52.43000031
C    21.27000046  15.10000038  53.72000122
C    20.28000069  14.98000050  54.66999817
C    18.98999977  15.53999996  54.45000076
C    14.88000011  16.34000015  53.57999802
C    14.17000008  16.10000038  54.79000092
C    12.79000092  16.18000031  54.87999725
C    22.67000008  14.65000057  54.05000305
H    23.04818726  15.14949417  54.94195557
H    18.13999939  15.19000053  56.45999908
H    17.05999947  16.40999985  51.70000076
H    19.31999969  16.43000031  51.24000168
H    21.68000031  15.60999966  51.59999847
H    20.43999863  14.63999939  55.68999863
H    12.23999977  16.03000069  55.79999924
H    23.29999924  14.88999939  53.18000031
H    22.70000076  13.55000019  54.12000275
