96

S    12.28999996  16.67000008  44.45999908
C     9.59000015  17.02000046  45.18000031
C    10.86999989  16.68000031  45.52999878
C    11.23999977  16.53000069  46.90000153
C    10.19999981  16.42000008  47.81000137
C     8.85999966  16.79999924  47.54000092
C     7.86999989  16.98999977  48.54000092
C     6.61999989  17.36999893  48.13000107
C     6.32000017  17.53999901  46.75000000
C     7.27999973  17.53999901  45.76000214
C     8.56999969  17.12000084  46.17000198
C    12.68000031  16.38000107  47.05999756
C    13.38000107  16.60000038  45.84999847
C    14.77000046  16.53000069  45.79999924
C     4.94000006  18.09999847  46.51000214
H     4.57524681  17.74955177  45.54447556
H     9.39999962  17.32999992  44.15000153
H    10.36999893  16.21999931  48.87000275
H     8.07999992  16.90999985  49.61000061
H     5.80999947  17.53000069  48.83999634
H     7.09999990  17.75000000  44.71000290
H    15.26999950  16.79000092  44.87999725
H     4.25000000  17.76000023  47.29999924
H     4.94000006  19.19999886  46.58000183
S    15.84000015  15.69000053  49.55999756
C    18.53999901  15.39000034  48.88999939
C    17.26000023  15.71000004  48.50000000
C    16.88999939  16.05999947  47.15999985
C    17.89999962  16.34000015  46.25000000
C    19.22999954  16.05999947  46.63000107
C    20.28000069  16.20000076  45.66999817
C    21.52000046  15.72000027  46.00999832
C    21.87000084  15.11000061  47.23999786
C    20.88000107  15.01000023  48.18000031
C    19.55999947  15.47999954  47.90000153
C    15.46000004  16.22999954  46.97999954
C    14.75999928  16.04999924  48.20000076
C    13.36999989  16.13000107  48.25000000
C    23.28000069  14.63999939  47.55000305
H    23.58001709  15.09716988  48.49291611
H    18.81999969  15.03000069  49.86999893
H    17.71999931  16.57999992  45.20999908
H    20.07999802  16.69000053  44.72000122
H    22.36000061  15.90000057  45.34000015
H    21.11999893  14.51000023  49.10999680
H    12.89000034  15.98000050  49.20999908
H    23.85000038  15.01000023  46.69000244
H    23.31999969  13.55999947  47.67000198
S    15.80000019  12.98999977  52.84999847
C    18.45999908  12.56000042  52.04000092
C    17.11000061  12.43000031  51.79000092
C    16.60000038  12.11999989  50.48999786
C    17.47999954  11.87000084  49.45000076
C    18.86000061  11.77999973  49.73999786
C    19.72999954  11.10999966  48.82999802
C    21.02999878  10.84000015  49.16999817
C    21.56999969  11.38000011  50.37000275
C    20.73999786  11.95000076  51.31000137
C    19.36000061  12.13999939  51.04000092
C    15.17000008  12.38999939  50.35999680
C    14.60000038  12.90999985  51.53999710
C    13.25000000  13.26000023  51.52000046
C    23.05000114  11.18999958  50.61999893
H    23.42094231  11.47533894  51.60441971
H    18.85000038  12.74000072  53.04000092
H    17.12000084  11.42000008  48.53000259
H    19.27000046  10.73999977  47.90999985
H    21.54999924  10.26000023  48.40999985
H    21.14000130  12.09000015  52.30999756
H    12.68000031  13.56999969  52.38999939
H    23.36000061  10.19000053  50.30000305
H    23.52999878  11.84000015  49.88999939
S    11.90999985  12.43999958  47.88000107
C     9.26000023  12.69999981  48.74000168
C    10.59999943  12.76000023  49.02999878
C    11.02000046  13.14000034  50.34000015
C    10.07999992  13.30999947  51.33999634
C     8.69000053  13.27000046  51.07999802
C     7.71000004  13.67000008  52.04000092
C     6.44000006  13.99000072  51.63000107
C     6.02999973  13.76999950  50.27999878
C     6.94000006  13.28999996  49.36999893
C     8.28999996  12.98999977  49.72000122
C    12.46999931  13.09000015  50.37000275
C    13.09999943  12.64999962  49.18000031
C    14.45000076  12.31999969  49.15999985
C     4.80999994  14.46000004  49.73999786
H     4.46160650  13.93385410  48.85123825
H     8.85000038  12.65999985  47.72999573
H    10.39999962  13.45000076  52.36999893
H     8.05000019  13.97999954  53.02000046
H     5.75999975  14.50000000  52.29999924
H     6.76000023  13.38999939  48.29999924
H    14.88000011  11.98999977  48.22000122
H     5.12000036  15.48999977  49.50000000
H     3.98999977  14.60000038  50.45000076
