96

S    12.30999947  17.12000084  44.40000153
C     9.68999958  17.57999992  45.20999908
C    10.90999985  17.02000046  45.48999786
C    11.23000050  16.46000099  46.77000046
C    10.21999931  16.31999969  47.70000076
C     8.89999962  16.69000053  47.36999893
C     7.82999992  16.57999992  48.30999756
C     6.57999992  17.06999969  48.02000046
C     6.32000017  17.64999962  46.75000000
C     7.32999992  17.86999893  45.84999847
C     8.63000011  17.35000038  46.11999893
C    12.67000008  16.26000023  46.88999939
C    13.38999939  16.57999992  45.70999908
C    14.78000069  16.61000061  45.63000107
C     4.90999985  18.09999847  46.40999603
H     4.53046656  17.57008362  45.53635788
H     9.63000011  18.09999847  44.25000000
H    10.42000008  16.03000069  48.73000336
H     8.03999996  16.13999939  49.27999878
H     5.69999981  16.86000061  48.61999893
H     7.25000000  18.43000031  44.93000031
H    15.25000000  16.84000015  44.68000031
H     4.30000019  17.86999893  47.29000092
H     4.84000015  19.19000053  46.31000137
S    15.81999969  15.77999973  49.38999939
C    18.52000046  15.44000053  48.69999695
C    17.22999954  15.72000027  48.31999969
C    16.90000153  16.25000000  47.02999878
C    17.92000008  16.40999985  46.11000061
C    19.22000122  15.93999958  46.38999939
C    20.20999908  15.78999996  45.38000107
C    21.47999954  15.34000015  45.65000153
C    21.77999878  14.96999931  46.97999954
C    20.86000061  15.03999901  48.01000214
C    19.54000092  15.47999954  47.71999741
C    15.46000004  16.36000061  46.83000183
C    14.73999977  16.14999962  48.02999878
C    13.35999966  16.00000000  48.08000183
C    23.18000031  14.52999973  47.35000229
H    23.59985352  15.17045307  48.12565994
H    18.75000000  15.08999920  49.71000290
H    17.71000099  16.52000046  45.05000305
H    20.12000084  16.15999985  44.36000061
H    22.18000031  15.24000072  44.81999969
H    21.05999947  14.81999969  49.05000305
H    12.89000034  15.81999969  49.03999710
H    23.80000114  14.57999992  46.45000076
H    23.16999817  13.45999908  47.60000229
S    11.82999992  17.23999977  51.11999893
C     9.13000011  17.86999893  51.86000061
C    10.38000011  17.35999870  52.14000320
C    10.71000004  16.64999962  53.34000015
C     9.75000000  16.62999916  54.33000183
C     8.46000004  17.14999962  54.09000015
C     7.46999979  17.19000053  55.12000275
C     6.21000004  17.69000053  54.89999771
C     5.89999962  18.20000076  53.61999893
C     6.80999994  18.29000092  52.58999634
C     8.10000038  17.75000000  52.83000183
C    12.07999992  16.18000031  53.46000290
C    12.86000061  16.40999985  52.29999924
C    14.25000000  16.36000061  52.29999924
C     4.46000004  18.54999924  53.27999878
H     4.09048796  17.90335464  52.48412704
H     9.09000015  18.63999939  51.10000229
H    10.03000069  16.21000099  55.30000305
H     7.73999977  16.65999985  56.03000259
H     5.38999987  17.46999931  55.58000183
H     6.46000004  18.70000076  51.65000153
H    14.85000038  16.90999985  51.58000183
H     3.86999989  18.50000000  54.20000076
H     4.38000011  19.55999947  52.88000107
S    15.15999985  15.39000034  56.09000397
C    17.86999893  15.17000008  55.47000122
C    16.59000015  15.42000008  55.04000092
C    16.28999901  15.93000031  53.73000336
C    17.28999901  16.36000061  52.88999939
C    18.61999893  16.04999924  53.26000214
C    19.69000053  16.23999977  52.34000397
C    20.95000076  15.73999977  52.56999969
C    21.18000031  15.11000061  53.81999969
C    20.22999954  15.03999901  54.80999756
C    18.88000107  15.38000011  54.51000214
C    14.85000038  15.95000076  53.50000000
C    14.11000061  15.67000008  54.68000031
C    12.72999954  15.77000046  54.62999725
C    22.56999969  14.68999958  54.20999908
H    22.86838150  15.25834560  55.09093475
H    18.05999947  14.68999958  56.43000031
H    17.07999992  16.82999992  51.93000031
H    19.40999985  16.72999954  51.39999771
H    21.71999931  15.81999969  51.79999924
H    20.58000183  14.68000031  55.77999878
H    12.18999958  15.65999985  55.56999969
H    23.34000015  14.77000046  53.43000031
H    22.49000168  13.60999966  54.40999985
