96

S    12.13999939  16.84999847  44.56999969
C     9.40999985  17.00000000  45.17000198
C    10.70000076  16.77999878  45.59999847
C    11.02000046  16.48999977  46.95999908
C     9.94999981  16.32999992  47.81999969
C     8.60000038  16.54000092  47.41000366
C     7.51999950  16.46999931  48.34000015
C     6.28000021  16.92000008  47.95999908
C     5.98999977  17.28999901  46.62000275
C     6.98000002  17.22999954  45.65999985
C     8.31999969  16.93000031  46.05999756
C    12.46000099  16.29999924  47.11999893
C    13.22000027  16.63999939  45.97000122
C    14.60000038  16.65999985  45.81999969
C     4.59999990  17.73999977  46.25000000
H     4.22351837  17.28538132  45.33365631
H     9.21000004  17.45000076  44.20000076
H    10.10000038  16.46000099  48.88000107
H     7.62000036  16.20000076  49.38999939
H     5.51000023  16.84999847  48.72000122
H     6.93000031  17.61999893  44.65000153
H    15.08999920  16.95000076  44.89999771
H     3.84999990  17.65999985  47.04999924
H     4.63999987  18.81999969  46.09000397
S    15.65999985  15.44999981  49.45000076
C    18.35000038  15.06999969  48.61000061
C    17.05000114  15.44999981  48.34999847
C    16.76000023  16.02000046  47.06999969
C    17.75000000  16.31999969  46.16000366
C    19.06999969  15.84000015  46.37000275
C    20.13000107  16.03999901  45.44000244
C    21.40000153  15.57999992  45.66999817
C    21.70000076  14.89999962  46.88999939
C    20.69999886  14.75999928  47.81999969
C    19.36000061  15.19000053  47.62000275
C    15.32999992  16.25000000  46.95000076
C    14.60000038  15.88999939  48.11000061
C    13.21000004  15.86999989  48.20999908
C    23.09999847  14.50000000  47.25999832
H    23.42695808  15.04019356  48.14847565
H    18.57999992  14.63999939  49.58000183
H    17.46000099  16.84000015  45.25000000
H    20.00000000  16.72000122  44.59999847
H    22.20000076  15.77000046  44.95999908
H    20.86000061  14.27000046  48.76999664
H    12.71999931  15.54999924  49.13000107
H    23.75000000  14.67000008  46.38999939
H    23.03999901  13.43000031  47.50000000
S    12.27000046  16.87999916  51.50000000
C     9.61999989  17.30999947  52.14000320
C    10.82999992  16.79999924  52.54000092
C    11.05999947  16.34000015  53.88000107
C    10.00000000  16.43000031  54.75999832
C     8.71000004  16.87999916  54.40000153
C     7.63999987  16.97999954  55.33000183
C     6.44000006  17.42000008  54.80999756
C     6.17000008  17.61999893  53.43000031
C     7.22000027  17.59000015  52.52999878
C     8.51000023  17.28000069  53.02999878
C    12.50000000  16.20000076  54.09000015
C    13.25000000  16.44000053  52.90999985
C    14.63999939  16.46000099  52.90999985
C     4.72000027  17.81999969  53.06999969
H     4.51345587  17.75589943  52.00166702
H     9.30999947  17.47999954  51.11999893
H    10.18000031  16.10999870  55.77999878
H     7.81000042  16.61000061  56.33999634
H     5.63000011  17.38000107  55.54000092
H     7.02000046  18.05999947  51.56999969
H    15.29999924  16.38000107  52.05999756
H     4.13000011  17.02000046  53.53000259
H     4.23999977  18.71000099  53.50999832
S    15.57000065  15.72000027  56.72000122
C    18.25000000  15.36000061  55.97000122
C    16.97000122  15.77000046  55.63000107
C    16.69999886  16.21999931  54.29999924
C    17.73999977  16.36000061  53.40000153
C    18.98999977  15.78999996  53.72000122
C    19.97999954  15.62000084  52.70999908
C    21.19999886  15.06000042  53.02999878
C    21.52000046  14.55000019  54.31000137
C    20.55000114  14.63999939  55.28999710
C    19.26000023  15.17000008  55.00000000
C    15.26000023  16.36999893  54.16999817
C    14.52000046  16.15999985  55.35999680
C    13.14000034  16.00000000  55.31999969
C    22.96999931  14.28999996  54.61999893
H    23.34709740  14.83074474  55.48803711
H    18.30000114  14.86999989  56.93999863
H    17.61999893  16.68000031  52.36999893
H    19.78000069  15.84000015  51.66999817
H    21.90999985  14.94999981  52.21000290
H    20.95000076  14.47000027  56.27999878
H    12.56000042  15.98999977  56.24000168
H    23.62999916  14.39000034  53.74000168
H    23.02000046  13.22000027  54.85000229
