96

S    12.51000023  17.20999908  44.22999954
C     9.85000038  17.61000061  44.95999908
C    11.11999989  17.20000076  45.31999969
C    11.44000053  16.64999962  46.59999847
C    10.40999985  16.38000107  47.48000336
C     9.09000015  16.76000023  47.15000153
C     8.03999996  16.50000000  48.06999969
C     6.75000000  16.88999939  47.78999710
C     6.40999985  17.38999939  46.51000214
C     7.42999983  17.64000130  45.61999893
C     8.78999996  17.29999924  45.84999847
C    12.86000061  16.39000130  46.79000092
C    13.53000069  16.62999916  45.56000137
C    14.89999962  16.50000000  45.44000244
C     5.03000021  17.88999939  46.16000366
H     4.66784906  17.31481934  45.30788040
H     9.59999943  18.06999969  44.01000214
H    10.59999943  15.85999966  48.41999817
H     8.42000008  16.05999947  48.97999573
H     5.93999958  17.05999947  48.48999786
H     7.23000002  18.22000122  44.72000122
H    15.27999973  16.72000122  44.45000076
H     4.38000011  17.75000000  47.02999878
H     5.05000019  18.94000053  45.84000015
S    15.93999958  15.25000000  49.09000015
C    18.61999893  14.82999992  48.39000320
C    17.38999939  15.36000061  48.06999969
C    17.06999969  15.86999989  46.77999878
C    18.06999969  15.93999958  45.83000183
C    19.38999939  15.55999947  46.18000031
C    20.39999962  15.59999943  45.17000198
C    21.70000076  15.27999973  45.45999908
C    21.96000099  14.70999908  46.72999954
C    21.00000000  14.47999954  47.68000031
C    19.69000053  15.00000000  47.47000122
C    15.65999985  16.18999863  46.58000183
C    14.96000099  15.92000008  47.77999878
C    13.57999992  16.04999924  47.94000244
C    23.31000137  14.14000034  47.09000015
H    23.77820206  14.65785789  47.92708588
H    18.64999962  14.27999973  49.33000183
H    17.79999924  15.93999958  44.77000427
H    20.19000053  15.90999985  44.15000153
H    22.50999832  15.26999950  44.72000122
H    21.09999847  13.92000008  48.61000061
H    13.10999966  15.85000038  48.89999771
H    23.97999954  14.25000000  46.23000336
H    23.22999954  13.05999947  47.27000427
S    11.68000031  17.01000023  50.86000061
C     9.23999977  17.84000015  51.93999863
C    10.39000034  17.10000038  52.08000183
C    10.73999977  16.61000061  53.37999725
C     9.82999992  16.61000061  54.41999817
C     8.56999969  17.21999931  54.19000244
C     7.50999975  17.07999992  55.13999939
C     6.19999981  17.42000008  54.93999863
C     5.89999962  18.00000000  53.68000031
C     6.88000011  18.22000122  52.72999573
C     8.23000050  17.81999969  52.93000031
C    12.18999958  16.46000099  53.40000153
C    12.84999943  16.69999886  52.15999985
C    14.22999954  16.68000031  52.06999969
C     4.44000006  18.22000122  53.34000015
H     4.15402985  17.55511856  52.52498245
H     9.01000023  18.38999939  51.04000092
H    10.03000069  16.05999947  55.33000183
H     7.82999992  16.61999893  56.06999969
H     5.45000029  17.52000046  55.72000122
H     6.63000011  18.55999947  51.72999954
H    14.73000050  16.75000000  51.11000061
H     3.82999992  18.20000076  54.25000000
H     4.46000004  19.29000092  53.09000015
S    15.40999985  15.93000031  55.77999878
C    18.07999992  15.72000027  55.12000275
C    16.79999924  15.98000050  54.68000031
C    16.40999985  16.18999863  53.31999969
C    17.43999863  16.04999924  52.39999771
C    18.78999901  15.95000076  52.80000305
C    19.84000015  15.76000023  51.84999847
C    21.11000061  15.38000011  52.18000031
C    21.35000038  15.00000000  53.53000259
C    20.45000076  15.27999973  54.52999878
C    19.14999962  15.71000004  54.18000031
C    14.98000050  16.46000099  53.22999954
C    14.28999996  16.31999969  54.45999908
C    12.90999985  16.29999924  54.59000015
C    22.72000122  14.52000046  53.94000244
H    23.19054985  15.14026928  54.70285797
H    18.38000107  15.54999924  56.14999771
H    17.15999985  16.13000107  51.36000061
H    19.63999939  15.92000008  50.79000092
H    21.93000031  15.29000092  51.46999741
H    20.69999886  15.03000069  55.56000137
H    12.39999962  15.93999958  55.47999954
H    23.36000061  14.47000027  53.04999924
H    22.59000015  13.45000076  54.16999817
