96

S    12.23999977  16.67000008  44.51000214
C     9.59999943  17.14999962  45.15999603
C    10.80000019  16.61999893  45.54999924
C    11.11999989  16.18999863  46.88000107
C    10.08999920  16.03999901  47.78999710
C     8.82000065  16.54000092  47.43000031
C     7.73000002  16.40999985  48.33000183
C     6.46000004  16.84999847  48.02000046
C     6.23000050  17.46000099  46.75000000
C     7.27999973  17.67000008  45.89000320
C     8.57999992  17.14999962  46.14999771
C    12.56000042  16.03999901  47.02000046
C    13.34000015  16.27000046  45.84999847
C    14.72000027  16.39999962  45.86000061
C     4.80999994  17.77000046  46.33999634
H     4.49580956  17.18446350  45.47597504
H     9.50000000  17.57999992  44.15999985
H    10.27999973  15.52999973  48.73000336
H     7.82999992  15.90000057  49.29000092
H     5.69000006  16.69000053  48.76999664
H     6.98000002  18.01000023  44.91000366
H    15.36999893  16.69999886  45.04000092
H     4.13999987  17.67000008  47.19999695
H     4.63999987  18.82999992  46.10000229
S    15.77000046  15.25000000  49.47999954
C    18.48999977  14.96999931  48.76999664
C    17.20999908  15.34999943  48.43999863
C    16.84999847  15.75000000  47.11000061
C    17.84000015  15.67999935  46.14999771
C    19.17000008  15.26999950  46.40999603
C    20.07999802  15.05000019  45.34000015
C    21.31000137  14.57999992  45.72000122
C    21.65999985  14.22000027  47.04000092
C    20.79999924  14.47999954  48.08000183
C    19.51000023  15.00000000  47.77999878
C    15.40999985  15.92000008  46.97999954
C    14.65999985  15.62000084  48.13999939
C    13.27000046  15.65999985  48.15999985
C    23.09999847  13.86000061  47.36000061
H    23.38433647  14.33626366  48.29830933
H    18.63999939  14.44000053  49.71000290
H    17.54999924  15.77000046  45.11000061
H    19.77000046  15.32999992  44.33000183
H    22.06999969  14.48999977  44.94999695
H    21.17000198  14.26000023  49.06999969
H    12.74000072  15.21999931  49.01000214
H    23.75000000  14.01000023  46.49000168
H    23.11000061  12.76000023  47.38999939
S    15.88000107  12.46999931  52.36999893
C    18.55999947  12.06999969  51.60999680
C    17.21999931  12.09000015  51.27999878
C    16.73999977  11.87999916  49.94999695
C    17.68000031  11.59999943  48.96999741
C    19.05999947  11.46999931  49.29000092
C    19.95000076  10.90000057  48.34000015
C    21.27000046  10.69000053  48.66000366
C    21.77999878  11.05999947  49.93000031
C    20.90999985  11.54999924  50.87999725
C    19.52000046  11.72000027  50.63000107
C    15.29000092  11.92000008  49.88999939
C    14.67000008  12.42000008  51.06999969
C    13.38999939  12.93000031  51.12999725
C    23.13999939  10.57000065  50.35999680
H    23.37467194  10.80467224  51.39824295
H    18.81000137  12.27000046  52.64999771
H    17.21999931  11.21000099  48.06999969
H    19.54000092  10.52000046  47.41000366
H    21.88999939  10.26999950  47.87000275
H    21.14999962  11.82000065  51.90999985
H    12.92000008  13.23999977  52.05999756
H    23.31000137   9.51000023  50.13999939
H    23.87000084  11.05999947  49.69999695
S    11.94000053  11.89000034  47.56000137
C     9.26000023  12.18999958  48.50000000
C    10.62000084  12.23999977  48.68999863
C    11.10000038  12.75000000  49.93999863
C    10.29999924  13.12000084  51.00000000
C     8.89999962  13.09999943  50.77999878
C     7.92999983  13.67000008  51.63999939
C     6.57000017  13.66000080  51.42000198
C     6.11000013  13.32999992  50.12000275
C     7.00000000  12.76000023  49.23999786
C     8.38999939  12.64000034  49.52000046
C    12.56000042  12.71999931  50.01999664
C    13.12999916  12.15000057  48.86000061
C    14.46000004  11.78999996  48.76999664
C     4.65999985  13.60999966  49.79000092
H     4.46128178  13.39708710  48.73963165
H     8.92000008  11.73999977  47.56999969
H    10.57999992  13.67000008  51.88999939
H     8.30000019  14.06999969  52.57999802
H     5.95000029  14.19999981  52.14000320
H     6.70000029  12.61999989  48.20000076
H    14.85999966  11.56000042  47.77999878
H     4.50000000  14.68000031  49.97000122
H     3.97000027  13.07999992  50.45000076
