96

S    12.27000046  16.77000046  43.95999908
C     9.61000061  17.34000015  44.71000290
C    10.86999989  16.88999939  45.04000092
C    11.19999981  16.39000130  46.32999802
C    10.19999981  16.20000076  47.28000259
C     8.90999985  16.69000053  46.95999908
C     7.95000029  16.57999992  48.00000000
C     6.65000010  16.95000076  47.72999573
C     6.28999996  17.50000000  46.46999741
C     7.23000002  17.68000031  45.48999786
C     8.57999992  17.25000000  45.68000031
C    12.64000034  16.28000069  46.50000000
C    13.38000107  16.40999985  45.30000305
C    14.77000046  16.34000015  45.26000214
C     4.88000011  17.89999962  46.10000229
H     4.51818609  17.46014786  45.17063522
H     9.34000015  17.69000053  43.70999908
H    10.24000072  15.62999916  48.20000076
H     8.26000023  16.13999939  48.94000244
H     5.92999983  16.79000092  48.52000427
H     7.04999971  18.04999924  44.47999954
H    15.39000034  16.35000038  44.36999893
H     4.13999987  17.50000000  46.81999969
H     4.61999989  18.96000099  46.18000031
S    15.71000004  15.52999973  49.09000015
C    18.34000015  14.86999989  48.26000214
C    17.11000061  15.44999981  48.01000214
C    16.86000061  15.85000038  46.65999985
C    17.85000038  15.75000000  45.70000076
C    19.17000008  15.34000015  46.02000427
C    20.27000046  15.48999977  45.13000107
C    21.54999924  15.14000034  45.50000000
C    21.78999901  14.61999989  46.79999924
C    20.72000122  14.34000015  47.62000275
C    19.43000031  14.88000011  47.36000061
C    15.43000031  16.09000015  46.46999741
C    14.72000027  15.97000027  47.68000031
C    13.32999992  16.06999969  47.70000076
C    23.19000053  14.27999973  47.23999786
H    23.43910789  14.79956532  48.16525269
H    18.44000053  14.30999947  49.19000244
H    17.61999893  15.88000107  44.65000153
H    20.17999840  15.95999908  44.15999985
H    22.34999847  15.25000000  44.77000427
H    20.72999954  13.85000038  48.59000397
H    12.79000092  16.04999924  48.63999939
H    23.92000008  14.56999969  46.46999741
H    23.25000000  13.20000076  47.42000198
S    11.87000084  16.84999847  51.04999924
C     9.27999973  17.57999992  51.81000137
C    10.52000046  17.13000107  52.18000031
C    10.84000015  16.79000092  53.54000092
C     9.81000042  16.81999969  54.45999908
C     8.47999954  17.18000031  54.13999939
C     7.42999983  17.25000000  55.10000229
C     6.21000004  17.78000069  54.73999786
C     5.93999958  18.04999924  53.36999893
C     6.94999981  18.07999992  52.43999863
C     8.26000023  17.63000107  52.78999710
C    12.23999977  16.42000008  53.67000198
C    12.92000008  16.45000076  52.42000198
C    14.29999924  16.25000000  52.43000031
C     4.55999994  18.39999962  52.84999847
H     4.31139565  17.90279198  51.91240692
H     9.11999989  17.88999939  50.77999878
H     9.89999962  16.43000031  55.47000122
H     7.59000015  16.82999992  56.09000397
H     5.36999989  17.82999992  55.41999817
H     6.80999994  18.30000114  51.38999939
H    14.86999989  16.43000031  51.52000046
H     3.81000018  18.04000092  53.55999756
H     4.44999981  19.48999977  52.81999969
S    15.39000034  15.77000046  56.23000336
C    18.09999847  15.57999992  55.47999954
C    16.79000092  15.78999996  55.13000107
C    16.42000008  15.95000076  53.75999832
C    17.39999962  16.21000099  52.81999969
C    18.75000000  15.90999985  53.11999893
C    19.71999931  15.86999989  52.08000183
C    21.00000000  15.44999981  52.36999893
C    21.28000069  14.92000008  53.66000366
C    20.36000061  14.89999962  54.68000031
C    19.07999992  15.46000004  54.45000076
C    14.98000050  16.00000000  53.62999725
C    14.28999996  16.04999924  54.86999893
C    12.89999962  16.13999939  54.86999893
C    22.72000122  14.63000107  54.02999878
H    22.93392754  15.07924652  54.99980164
H    18.38999939  15.15999985  56.44000244
H    17.23999977  16.61000061  51.81999969
H    19.37999916  16.00000000  51.05999756
H    21.81999969  15.48999977  51.65999985
H    20.63999939  14.55000019  55.66999817
H    12.30000019  16.15999985  55.77999878
H    23.34000015  15.14000034  53.27999878
H    23.16999817  13.63000011  54.06000137
