96

S    12.39999962  16.95000076  44.45999908
C     9.84000015  17.68000031  45.31000137
C    11.03999996  17.05000114  45.59000015
C    11.36999989  16.54000092  46.88000107
C    10.38000011  16.43000031  47.84999847
C     9.10000038  16.95999908  47.56999969
C     8.00000000  16.79000092  48.44999695
C     6.71999979  17.23999977  48.20000076
C     6.44000006  17.82999992  46.93000031
C     7.46999979  17.94000053  46.03000259
C     8.82000065  17.56000137  46.29000092
C    12.81000042  16.36999893  47.01000214
C    13.50999928  16.57999992  45.79999924
C    14.88999939  16.45000076  45.68999863
C     5.05000019  18.15000153  46.43000031
H     4.79392862  17.57383919  45.54086304
H     9.61000061  18.02000046  44.29999924
H    10.52000046  15.88999939  48.77999878
H     8.18000031  16.21999931  49.34999847
H     5.88000011  17.17000008  48.88000107
H     7.36000013  18.30999947  45.01999664
H    15.47999954  16.57999992  44.78000259
H     4.30000019  17.86999893  47.18000031
H     4.96000004  19.22000122  46.20999908
S    16.03999901  15.70000076  49.40999985
C    18.73999977  15.46000004  48.68000031
C    17.46000099  15.85999966  48.36999893
C    17.09000015  16.05999947  47.00000000
C    17.98999977  16.01000023  45.94999695
C    19.34000015  15.75000000  46.27999878
C    20.30999947  15.67999935  45.24000168
C    21.59000015  15.31000042  45.58000183
C    21.96000099  14.92000008  46.90000153
C    21.01000023  14.91000080  47.88999939
C    19.70000076  15.39999962  47.63000107
C    15.65000057  16.23999977  46.84999847
C    14.94999981  16.09000015  48.06999969
C    13.55999947  16.02000046  48.13999939
C    23.38000107  14.47999954  47.19999695
H    23.69333076  15.09953880  48.04029083
H    19.14999962  15.10000038  49.61999893
H    17.61000061  16.14999962  44.94999695
H    20.03000069  16.01000023  44.25000000
H    22.39999962  15.21000004  44.86999893
H    21.14999962  14.59000015  48.92000198
H    13.05999947  15.93999958  49.09999847
H    23.94000053  14.61999989  46.26999664
H    23.39999962  13.43000031  47.50000000
S    11.73999977  17.32999992  51.17000198
C     9.03999996  17.46999931  51.88000107
C    10.34999943  17.28000069  52.25999832
C    10.76000023  17.09000015  53.61999893
C     9.76000023  16.97999954  54.56999969
C     8.40999985  17.18000031  54.20999908
C     7.42000008  17.20000076  55.24000168
C     6.12999964  17.57999992  54.95999908
C     5.73999977  17.94000053  53.63999939
C     6.65000010  17.79000092  52.62000275
C     8.01000023  17.47999954  52.85999680
C    12.20999908  16.97999954  53.75000000
C    12.88000011  17.10000038  52.50999832
C    14.27000046  17.09000015  52.39999771
C     4.28999996  18.18000031  53.27999878
H     4.05437803  17.96579742  52.23754883
H     8.85999966  17.84000015  50.86999893
H    10.11999989  16.68000031  55.54999924
H     7.59000015  16.92000008  56.27999878
H     5.40000010  17.40999985  55.73999786
H     6.44999981  18.05999947  51.58000183
H    14.73000050  17.26000023  51.43000031
H     3.68999982  17.53000069  53.93000031
H     4.09000015  19.22999954  53.54999924
S    15.39999962  16.14999962  56.07999802
C    17.97000122  15.38000011  55.14999771
C    16.73999977  15.95999908  54.93999863
C    16.44000053  16.47999954  53.63999939
C    17.40999985  16.54000092  52.67000198
C    18.70000076  16.01000023  52.90000153
C    19.71999931  16.10999870  51.90999985
C    21.01000023  15.67999935  52.15000153
C    21.31000137  15.26999950  53.47999954
C    20.36999893  15.11999989  54.47000122
C    19.01000023  15.43000031  54.18000031
C    15.01000023  16.75000000  53.54000092
C    14.29999924  16.59000015  54.75000000
C    12.92000008  16.68000031  54.92000198
C    22.76000023  15.08999920  53.88000107
H    22.92271614  15.37298584  54.91997147
H    18.35000038  15.07999992  56.11999893
H    17.10000038  16.90000153  51.69000244
H    19.52999878  16.67000008  51.00000000
H    21.80000114  15.77999973  51.42000198
H    20.62999916  14.75999928  55.45999908
H    12.51000023  16.48999977  55.90999985
H    23.43000031  15.67000008  53.22999954
H    22.93999863  14.01999950  53.72000122
