96

S    12.02000046  16.11999893  44.20000076
C     9.36999989  16.45000076  44.93000031
C    10.65000057  16.13000107  45.31000137
C    11.00999928  15.67000008  46.63999939
C     9.96999931  15.62999916  47.56999969
C     8.67000008  16.11999893  47.30999756
C     7.64999962  16.03999901  48.36000061
C     6.35999966  16.50000000  48.04999924
C     6.03999996  16.87000084  46.66999817
C     7.03000021  16.88999939  45.68000031
C     8.34000015  16.52000046  45.96000290
C    12.46000099  15.59000015  46.79000092
C    13.12999916  15.77000046  45.56000137
C    14.48999977  15.76000023  45.48999786
C     4.59999990  17.18000031  46.33999634
H     4.26563025  16.78990173  45.37868500
H     9.09000015  16.54000092  43.88999939
H    10.19000053  15.31999969  48.59000397
H     7.83999968  15.67999935  49.36999893
H     5.61999989  16.44000053  48.85000229
H     6.80999994  17.10000038  44.64000320
H    14.88000011  15.67999935  44.47999954
H     4.03999996  16.70999908  47.15999985
H     4.30999994  18.22999954  46.31000137
S    15.85000038  15.10000038  49.13000107
C    18.48999977  14.65000057  48.44999695
C    17.18000031  15.08999920  48.06000137
C    16.79000092  15.48999977  46.76000214
C    17.82999992  15.36999893  45.81999969
C    19.19000053  15.03000069  46.24000168
C    20.25000000  14.89999962  45.24000168
C    21.50000000  14.42999935  45.52000046
C    21.78999901  14.17000008  46.86999893
C    20.81000137  14.30999947  47.84999847
C    19.51000023  14.57999992  47.52999878
C    15.32999992  15.65999985  46.60999680
C    14.67000008  15.38000011  47.84000015
C    13.27000046  15.36999893  47.91999817
C    23.25000000  13.88000011  47.25000000
H    23.66498947  14.57164955  47.98314667
H    18.63999939  14.25000000  49.45000076
H    17.68000031  15.34999943  44.73999786
H    20.03999901  15.29999924  44.25000000
H    22.29999924  14.52999973  44.79000092
H    21.04999924  14.29999924  48.90999603
H    12.72999954  15.26000023  48.85000229
H    23.81000137  14.01000023  46.31000137
H    23.29000092  12.81999969  47.51999664
S    11.72999954  16.36000061  51.17000198
C     9.17000008  16.95000076  51.93000031
C    10.36999893  16.40999985  52.25000000
C    10.67999935  15.98999977  53.61999893
C     9.68999958  15.90999985  54.58000183
C     8.42000008  16.26000023  54.13999939
C     7.30000019  16.11999893  54.99000168
C     6.06999969  16.57999992  54.61999893
C     5.75000000  17.14999962  53.30999756
C     6.78999996  17.23999977  52.48000336
C     8.13000011  16.87999916  52.87000275
C    12.13000107  15.82999992  53.68000031
C    12.81000042  16.05999947  52.44999695
C    14.17000008  15.95999908  52.29999924
C     4.38000011  17.67000008  52.97999954
H     4.00718117  17.10022163  52.12884903
H     8.97000027  17.28000069  50.90999985
H    10.06000042  15.67000008  55.58000183
H     7.40000010  15.65000057  55.97000122
H     5.26999998  16.38000107  55.31999969
H     6.57999992  17.64000130  51.49000168
H    14.59000015  15.98999977  51.30000305
H     3.75000000  17.56999969  53.87000275
H     4.48999977  18.72999954  52.70999908
S    15.44999981  15.19000053  56.00999832
C    18.09000015  14.88000011  55.06999969
C    16.81999969  15.29999924  54.82999802
C    16.36000061  15.59000015  53.54999924
C    17.31999969  15.64000034  52.52999878
C    18.64999962  15.25000000  52.81000137
C    19.68000031  15.19999981  51.77999878
C    20.98999977  14.85999966  52.04999924
C    21.31999969  14.48999977  53.43000031
C    20.38999939  14.52000046  54.40000153
C    19.06999969  14.93000031  54.15000153
C    14.94999981  15.76000023  53.46000290
C    14.28999996  15.51000023  54.69999695
C    12.90999985  15.57000065  54.80999756
C    22.75000000  14.13000011  53.93000031
H    22.96096802  14.62225819  54.87935638
H    18.23999977  14.37000084  56.00999832
H    17.01000023  15.97000027  51.55000305
H    19.42000008  15.65000057  50.83000183
H    21.70000076  14.93999958  51.24000168
H    20.63999939  14.37000084  55.45000076
H    12.38000011  15.22999954  55.70000076
H    23.43000031  14.48999977  53.15000153
H    22.88999939  13.03999996  54.00000000
