96

S    12.20999908  16.05999947  43.97999573
C     9.50000000  16.47999954  44.68999863
C    10.80999947  16.10999870  45.00999832
C    11.18999958  15.80999947  46.38000107
C    10.26000023  15.86999989  47.36000061
C     8.86999989  16.13000107  47.11000061
C     7.83999968  16.11999893  48.09000015
C     6.51999998  16.54999924  47.81999969
C     6.25999975  16.95999908  46.52000046
C     7.25000000  16.94000053  45.56999969
C     8.55000019  16.52000046  45.77999878
C    12.60000038  15.62000084  46.51000214
C    13.31999969  15.80999947  45.33000183
C    14.68999958  15.65999985  45.21999741
C     4.86000013  17.13000107  46.07999802
H     4.55936813  16.62178993  45.16378784
H     9.30000019  16.84999847  43.68999863
H    10.67000008  15.62999916  48.34000015
H     8.07999992  15.76000023  49.08000183
H     5.65999985  16.44000053  48.47999954
H     7.03999996  17.02999878  44.51000214
H    15.14999962  15.69000053  44.23999786
H     4.18000031  16.97999954  46.93000031
H     4.69000006  18.20999908  45.97999954
S    15.80000019  15.01000023  48.99000168
C    18.37000084  14.47000027  48.29000092
C    17.19000053  14.94999981  47.90999985
C    16.86000061  15.36999893  46.60999680
C    17.89999962  15.47999954  45.70000076
C    19.19999886  15.06999969  46.10000229
C    20.20000076  15.07999992  45.11000061
C    21.47999954  14.60000038  45.40000153
C    21.84000015  14.39000034  46.77000046
C    20.85000038  14.32000065  47.70000076
C    19.50000000  14.60999966  47.43999863
C    15.44000053  15.54999924  46.43000031
C    14.75000000  15.42000008  47.63999939
C    13.38000107  15.43000031  47.70999908
C    23.25000000  14.06000042  47.15999985
H    23.52570915  14.53160954  48.10322189
H    18.54999924  14.11999893  49.31000137
H    17.64999962  15.76000023  44.68000031
H    19.95000076  15.38000011  44.09999847
H    22.19000053  14.46000004  44.59000015
H    21.07999992  13.96000004  48.69999695
H    12.97000027  15.48999977  48.70999908
H    23.85000038  14.40999985  46.31000137
H    23.35000038  12.97000027  47.19999695
S    12.03999996  16.36999893  51.00999832
C     9.43000031  16.86000061  51.90000153
C    10.71000004  16.42000008  52.15000153
C    10.97000027  15.95999908  53.48999786
C    10.07999992  15.75000000  54.40999985
C     8.80999947  16.28000069  54.16999817
C     7.76999998  16.32999992  55.15999603
C     6.51000023  16.76000023  54.86000061
C     6.11000013  17.25000000  53.60000229
C     7.09000015  17.25000000  52.56999969
C     8.38000011  16.73999977  52.81999969
C    12.46999931  15.81999969  53.54999924
C    13.12000084  16.13000107  52.34000397
C    14.55000019  16.03000069  52.27000427
C     4.65999985  17.56999969  53.23999786
H     4.36648178  17.03307533  52.33796692
H     9.22999954  17.36999893  50.96000290
H    10.39999962  15.43000031  55.40000153
H     8.07999992  15.78999996  56.05999756
H     5.72000027  16.59000015  55.59999847
H     6.80999994  17.67000008  51.60999680
H    15.13000011  16.01000023  51.33999634
H     4.05999994  17.20000076  54.08000183
H     4.53999996  18.65999985  53.18000031
S    15.71000004  15.47000027  55.93000031
C    18.30999947  15.10000038  55.20999908
C    17.05999947  15.44000053  54.81999969
C    16.75000000  15.70000076  53.43000031
C    17.71000099  15.52000046  52.49000168
C    19.06999969  15.26000023  52.84999847
C    20.13999939  15.13000011  51.93999863
C    21.45000076  14.73000050  52.29999924
C    21.71999931  14.59000015  53.63999939
C    20.69999886  14.78999996  54.59999847
C    19.34999847  15.08999920  54.23999786
C    15.29999924  15.95000076  53.37999725
C    14.63000107  15.70000076  54.64000320
C    13.23999977  15.59000015  54.72000122
C    23.22999954  14.32000065  54.13000107
H    23.47219658  14.89246464  55.02539062
H    18.53000069  14.89999962  56.25999832
H    17.53999901  15.76000023  51.44000244
H    19.93000031  15.36999893  50.90000153
H    22.27000046  14.77000046  51.59000015
H    20.94000053  14.59000015  55.63999939
H    12.82999992  15.40999985  55.70000076
H    23.95999908  14.78000069  53.44999695
H    23.34000015  13.23999977  54.20000076
