96

S    12.27000046  16.81999969  44.55999756
C     9.48999977  16.87999916  45.13999939
C    10.81999969  16.61999893  45.54000092
C    11.13999939  16.06999969  46.79999924
C    10.10000038  15.75000000  47.68000031
C     8.78000069  16.27000046  47.39999771
C     7.67000008  16.21999931  48.29000092
C     6.43000031  16.69999886  47.91999817
C     6.19999981  17.15999985  46.59999847
C     7.20000029  17.19000053  45.63999939
C     8.50000000  16.84999847  46.09000397
C    12.58999920  15.88000107  46.98999786
C    13.30999947  16.32999992  45.83000183
C    14.70000076  16.51000023  45.87999725
C     4.86999989  17.45000076  46.09000397
H     4.50606155  16.81825829  45.27972412
H     9.32999992  17.21999931  44.12000275
H    10.26000023  15.21999931  48.61000061
H     7.96999979  15.85999966  49.27000046
H     5.63000011  16.82999992  48.63999939
H     7.03999996  17.50000000  44.61000061
H    15.32999992  16.79999924  45.04000092
H     4.18000031  17.36999893  46.95000076
H     4.88000011  18.52000046  45.83000183
S    15.75000000  15.15999985  49.51000214
C    18.45000076  15.01000023  48.75999832
C    17.20000076  15.44999981  48.53000259
C    16.79000092  15.93999958  47.21000290
C    17.76000023  16.07999992  46.23000336
C    19.09000015  15.62000084  46.40999603
C    19.97999954  15.39999962  45.34999847
C    21.25000000  14.89999962  45.58000183
C    21.63999939  14.61999989  46.95999908
C    20.72999954  14.72000027  47.95999908
C    19.44000053  15.07999992  47.72999573
C    15.36999893  15.98000050  47.02000046
C    14.70000076  15.47000027  48.11999893
C    13.26000023  15.48999977  48.15000153
C    23.06999969  14.30999947  47.29999924
H    23.39289284  14.63289356  48.28973770
H    18.86999893  14.67000008  49.71000290
H    17.46999931  16.36999893  45.22999573
H    19.57999992  15.70000076  44.38000107
H    21.97999954  14.70000076  44.79999924
H    21.04000092  14.34999943  48.93000031
H    12.67000008  15.42000008  49.06000137
H    23.74000168  14.72000027  46.53999710
H    23.15000153  13.22000027  47.18999863
S    15.60999966  12.67000008  52.35000229
C    18.35000038  12.07999992  51.65999985
C    17.02000046  12.15999985  51.31999969
C    16.50000000  11.77999973  50.06000137
C    17.39999962  11.38000011  49.06000137
C    18.78000069  11.30000019  49.34999847
C    19.63000107  10.77999973  48.34000015
C    20.94000053  10.50000000  48.66000366
C    21.47000122  10.86999989  49.89999771
C    20.59000015  11.50000000  50.86999893
C    19.25000000  11.69000053  50.63999939
C    15.06999969  11.89000034  49.99000168
C    14.47999954  12.46999931  51.04999924
C    13.09999943  12.77999973  51.09000397
C    22.90999985  10.64000034  50.17000198
H    23.13056374  10.85344791  51.21589661
H    18.82999992  12.38999939  52.58999634
H    17.07999992  11.26999950  48.02000046
H    19.07999992  10.59999943  47.42000198
H    21.42999840   9.88000011  47.90999985
H    20.88999939  11.77000046  51.86999893
H    12.71999931  13.02999973  52.08000183
H    23.09000015   9.56999969  50.02999878
H    23.52000046  11.25000000  49.50000000
S    11.72000027  11.89000034  47.54000092
C     9.02999973  12.27000046  48.34000015
C    10.39000034  12.32999992  48.66000366
C    10.85000038  12.72999954  49.95999908
C     9.90999985  12.96000004  50.96000290
C     8.52999973  12.98999977  50.65000153
C     7.57000017  13.45999908  51.52000046
C     6.25000000  13.68000031  51.23000336
C     5.84000015  13.31999969  49.95999908
C     6.75000000  12.84000015  49.06999969
C     8.09000015  12.75000000  49.31999969
C    12.28000069  12.60000038  49.97000122
C    12.94000053  12.02000046  48.85000229
C    14.27999973  11.65999985  48.82999802
C     4.46999979  13.76999950  49.47999954
H     4.32421255  13.37637329  48.47406387
H     8.67000008  11.77999973  47.43999863
H    10.18000031  13.17000008  51.98999786
H     8.03999996  13.81999969  52.43000031
H     5.58000040  14.27000046  51.84999847
H     6.48999977  12.53000069  48.06000137
H    14.78000069  11.26000023  47.95999908
H     4.33999968  14.85000038  49.59000015
H     3.61999989  13.38000107  50.06000137
