96

S    11.75000000  16.61999893  44.08000183
C     9.06000042  16.79999924  44.68000031
C    10.31999969  16.42000008  45.10000229
C    10.67000008  15.88000107  46.31000137
C     9.63999939  15.80999947  47.28000259
C     8.30000019  16.21000099  46.90000153
C     7.21000004  16.14999962  47.88999939
C     5.96000004  16.68000031  47.52999878
C     5.71000004  17.26000023  46.22000122
C     6.67999983  17.15999985  45.24000168
C     7.97999954  16.69000053  45.59000015
C    12.13000107  15.67999935  46.52000046
C    12.86000061  15.98999977  45.35999680
C    14.21000004  15.90999985  45.24000168
C     4.33999968  17.79000092  45.91999817
H     4.04219484  17.37445831  44.95732498
H     8.85000038  17.43000031  43.81999969
H     9.86999989  15.39000034  48.26000214
H     7.42999983  15.77999973  48.88999939
H     5.23999977  16.79999924  48.33000183
H     6.58999968  17.65999985  44.27999878
H    14.75999928  16.10999870  44.33000183
H     3.63000011  17.57999992  46.72000122
H     4.32999992  18.89000130  45.84999847
S    15.18000031  14.91000080  48.93000031
C    17.80999947  14.59000015  48.40000153
C    16.57999992  14.98000050  47.95000076
C    16.28000069  15.39000034  46.62000275
C    17.31999969  15.52000046  45.75000000
C    18.60999870  15.06000042  46.12999725
C    19.67000008  14.93000031  45.20000076
C    20.88999939  14.37999916  45.54999924
C    21.19999886  13.92000008  46.88000107
C    20.17999840  14.06999969  47.77999878
C    18.86999893  14.55999947  47.41000366
C    14.86999989  15.64000034  46.40999603
C    14.14000034  15.39999962  47.61000061
C    12.77999973  15.27999973  47.68000031
C    22.67000008  13.67000008  47.29000092
H    22.92054939  14.22836494  48.19197464
H    17.90999985  14.35999966  49.45000076
H    17.18000031  16.14999962  44.87999725
H    19.51000023  15.34999943  44.20999908
H    21.70999908  14.61999989  44.86999893
H    20.38999939  13.90999985  48.82999802
H    12.27000046  15.25000000  48.63999939
H    23.26000023  13.96999931  46.42000198
H    22.63000107  12.57999992  47.38999939
S    11.92000008  16.29999924  51.04000092
C     9.22999954  16.80999947  51.72000122
C    10.46000004  16.31999969  52.08000183
C    10.75000000  15.93000031  53.44999695
C     9.72999954  15.90999985  54.38999939
C     8.45000076  16.36999893  54.08000183
C     7.42999983  16.39999962  55.02999878
C     6.17999983  16.70999908  54.61999893
C     5.88999987  17.19000053  53.31999969
C     6.89000034  17.39999962  52.39999771
C     8.19999981  16.92000008  52.72999573
C    12.18999958  15.77999973  53.57999802
C    12.92000008  15.95000076  52.39999771
C    14.30999947  15.90000057  52.35000229
C     4.53999996  17.64999962  52.90999985
H     4.21253586  17.12745094  52.01121521
H     8.93999958  17.06999969  50.70000076
H     9.94999981  15.65000057  55.41999817
H     7.60999966  16.02000046  56.04000092
H     5.40000010  16.62999916  55.37000275
H     6.63000011  17.89999962  51.46999741
H    14.77000046  16.10000038  51.38000107
H     3.91000009  17.45000076  53.77999878
H     4.63999987  18.71999931  52.68000031
S    15.32999992  14.91000080  56.06999969
C    17.97000122  14.42999935  55.13999939
C    16.68000031  14.88000011  54.87999725
C    16.40999985  15.36000061  53.60000229
C    17.35000038  15.44000053  52.56999969
C    18.61999893  15.11000061  52.95000076
C    19.67000008  15.29999924  52.01000214
C    20.98999977  15.14000034  52.36000061
C    21.28999901  14.73999977  53.61999893
C    20.35000038  14.55999947  54.59999847
C    18.97999954  14.68999958  54.23999786
C    14.98000050  15.65000057  53.52000427
C    14.29999924  15.50000000  54.75000000
C    12.94999981  15.47000027  54.75000000
C    22.72000122  14.19000053  53.93000031
H    23.06835365  14.60105610  54.87751389
H    18.15999985  14.02999973  56.13999939
H    17.12000084  15.70000076  51.53999710
H    19.37000084  15.64000034  51.02000427
H    21.77000046  15.19999981  51.59999847
H    20.65999985  14.19999981  55.58000183
H    12.42000008  15.22999954  55.65999985
H    23.29999924  14.51000023  53.04999924
H    22.65999985  13.09999943  54.00000000
