96

S    12.13999939  16.14999962  44.19000244
C     9.51000023  16.90000153  45.01999664
C    10.77000046  16.35000038  45.27999878
C    11.03000069  15.82999992  46.59000015
C    10.03000069  15.72000027  47.50999832
C     8.73999977  16.32999992  47.30999756
C     7.65999985  16.26000023  48.26000214
C     6.35999966  16.72999954  47.95000076
C     6.15999985  17.32999992  46.65000153
C     7.17999983  17.35000038  45.72999954
C     8.47999954  16.87000084  46.03000259
C    12.41000080  15.50000000  46.73999786
C    13.10999966  15.70000076  45.54999924
C    14.47999954  15.50000000  45.45999908
C     4.76999998  17.80999947  46.18000031
H     4.47743273  17.26768112  45.28089142
H     9.26999950  17.38999939  44.08000183
H    10.26000023  15.36999893  48.50999832
H     7.77999973  15.82999992  49.25000000
H     5.59000015  16.61000061  48.69999695
H     7.07999992  17.84000015  44.77000427
H    15.01000023  15.80999947  44.55999756
H     4.13999987  17.60000038  47.04999924
H     4.65999985  18.90999985  46.13999939
S    15.51000023  14.40000057  49.15000153
C    18.27000046  14.27999973  48.47999954
C    16.95999908  14.67000008  48.18999863
C    16.61000061  15.14000034  46.90000153
C    17.60000038  15.32999992  45.93999863
C    18.93000031  14.91000080  46.20999908
C    19.92000008  15.01000023  45.20000076
C    21.21999931  14.68000031  45.40000153
C    21.57999992  14.09999943  46.60999680
C    20.63999939  13.90999985  47.60000229
C    19.27000046  14.30999947  47.45999908
C    15.17000008  15.11000061  46.65000153
C    14.39000034  14.77000046  47.81999969
C    13.04999924  15.06000042  47.90999985
C    23.03999901  13.90999985  46.90999985
H    23.27880478  14.49678135  47.79699326
H    18.54999924  13.89000034  49.45999908
H    17.42000008  15.67999935  44.93000031
H    19.55999947  15.46000004  44.27999878
H    21.87000084  14.82999992  44.54000092
H    21.02000046  13.71000099  48.60000229
H    12.58999920  14.88000011  48.88000107
H    23.59000015  14.18000031  46.00000000
H    23.12999916  12.86999893  47.23999786
S    11.46000004  16.52000046  50.72000122
C     8.76999950  16.95999908  51.47999573
C    10.03999901  16.60000038  51.79999924
C    10.38000011  16.09000015  53.15999985
C     9.43000031  16.03999901  54.12000275
C     8.14999962  16.45000076  53.82999802
C     7.14999962  16.36999893  54.86999893
C     5.88000011  16.84999847  54.65000153
C     5.55000019  17.48999977  53.40999985
C     6.51000023  17.54999924  52.35000229
C     7.77999973  16.90999985  52.50000000
C    11.82999992  15.98999977  53.30999756
C    12.55000019  16.14999962  52.06999969
C    13.93000031  16.06999969  52.02999878
C     4.05000019  17.75000000  53.06000137
H     3.85676217  17.05986404  52.23873901
H     8.60999966  17.29999924  50.45000076
H     9.57999992  15.72999954  55.14999771
H     7.34000015  15.81999969  55.77999878
H     5.10999966  16.82999992  55.41999817
H     6.40999985  18.12000084  51.43000031
H    14.40000057  16.28000069  51.06999969
H     3.30000019  17.61000061  53.85000229
H     3.98000002  18.82999992  52.85999680
S    14.96999931  15.39000034  55.79999924
C    17.76000023  15.08999920  55.06999969
C    16.46000099  15.38000011  54.72999954
C    16.09000015  15.80999947  53.43000031
C    17.04000092  15.85000038  52.43000031
C    18.45999908  15.54999924  52.77000046
C    19.50000000  15.57999992  51.86000061
C    20.75000000  15.19000053  52.21000290
C    21.09000015  14.93999958  53.54999924
C    20.07999802  14.85999966  54.47000122
C    18.78999901  15.21000004  54.10999680
C    14.67000008  15.93999958  53.25000000
C    13.94000053  15.84000015  54.43999863
C    12.55000019  15.93000031  54.47999954
C    22.50000000  14.50000000  53.87000275
H    22.81731796  14.95528221  54.80815506
H    18.06999969  14.86999989  56.09000397
H    16.79000092  15.84000015  51.37000275
H    19.22000122  15.70000076  50.81999969
H    21.47999954  15.01000023  51.43000031
H    20.20000076  14.50000000  55.48999786
H    11.97000027  15.78999996  55.40000153
H    23.22999954  14.78000069  53.09999847
H    22.55000114  13.40999985  53.95999908
