96

S    12.48000050  16.29999924  44.18000031
C     9.90999985  16.93000031  44.97000122
C    11.14999962  16.50000000  45.34000015
C    11.49000072  16.09000015  46.66999817
C    10.44000053  16.00000000  47.60000229
C     9.18000031  16.40999985  47.30999756
C     8.05000019  16.22999954  48.09999847
C     6.74000025  16.62999916  47.78999710
C     6.50000000  17.05999947  46.49000168
C     7.51999950  17.17000008  45.59000015
C     8.89000034  16.86000061  45.94999695
C    12.93000031  15.80999947  46.79000092
C    13.57999992  15.95999908  45.56000137
C    14.98999977  15.98999977  45.47999954
C     5.14999962  17.56000137  46.02000427
H     4.85671568  17.06141663  45.09615326
H     9.65999985  17.14999962  43.93000031
H    10.65999985  15.67000008  48.61000061
H     8.31999969  15.75000000  49.03999710
H     5.93999958  16.54999924  48.52000427
H     7.35000038  17.64000130  44.61999893
H    15.47999954  16.11999893  44.52000046
H     4.38000011  17.42000008  46.79000092
H     5.26000023  18.63000107  45.79000092
S    16.13000107  14.91000080  49.10999680
C    18.76000023  14.59000015  48.34000015
C    17.53000069  15.08999920  48.01000214
C    17.18000031  15.59000015  46.75000000
C    18.19000053  15.54999924  45.79000092
C    19.52999878  15.07999992  46.04999924
C    20.61000061  14.89999962  45.02999878
C    21.83000183  14.40000057  45.35999680
C    22.07999992  14.04999924  46.72999954
C    21.09000015  14.01999950  47.67000198
C    19.78999901  14.52000046  47.35000229
C    15.70000076  15.67999935  46.63000107
C    15.05000019  15.34000015  47.83000183
C    13.66000080  15.42000008  47.95000076
C    23.42000008  13.69999981  47.15000153
H    23.62016106  14.20755482  48.09362411
H    18.90999985  14.04999924  49.27000046
H    17.82999992  15.65999985  44.77000427
H    20.42000008  15.26999950  44.02000046
H    22.53000069  14.34000015  44.54000092
H    21.31000137  14.00000000  48.74000168
H    13.26000023  15.11000061  48.90999603
H    24.04000092  13.94999981  46.27999878
H    23.54999924  12.63000011  47.30999756
S    11.84000015  16.47999954  50.70999908
C     9.21000004  17.02999878  51.37000275
C    10.38000011  16.40999985  51.69000244
C    10.71000004  16.03000069  53.00000000
C     9.72999954  16.07999992  53.95000076
C     8.39999962  16.55999947  53.68999863
C     7.35000038  16.63999939  54.61999893
C     6.12999964  17.02999878  54.22999954
C     5.92999983  17.69000053  53.01000214
C     6.91999960  17.79000092  52.09999847
C     8.14999962  17.11000061  52.32999802
C    12.10000038  15.75000000  53.22000122
C    12.86000061  16.03999901  52.04999924
C    14.27000046  16.10999870  52.06999969
C     4.48000002  17.94000053  52.54000092
H     4.16804075  17.21903038  51.78436661
H     9.11999989  17.52000046  50.40000153
H    10.06999969  15.82999992  54.94999695
H     7.36000013  16.11999893  55.58000183
H     5.25000000  16.88999939  54.86000061
H     6.75000000  18.23999977  51.11999893
H    14.73999977  16.27000046  51.11000061
H     3.84000015  17.86999893  53.43000031
H     4.48999977  18.96000099  52.15000153
S    15.27999973  14.91000080  55.79000092
C    18.00000000  14.73000050  55.15999603
C    16.72999954  15.14999962  54.84000397
C    16.39000130  15.52999973  53.50000000
C    17.47999954  15.54999924  52.52999878
C    18.84000015  15.19999981  52.88999939
C    19.92000008  15.14000034  51.97999954
C    21.18000031  14.61999989  52.31999969
C    21.38000107  14.04999924  53.64999771
C    20.36000061  14.13000011  54.50000000
C    19.09000015  14.70999908  54.16999817
C    14.94999981  15.78999996  53.27999878
C    14.22999954  15.39999962  54.40999985
C    12.81000042  15.39999962  54.40000153
C    22.72999954  13.43000031  54.08000183
H    23.00659370  14.01155663  54.95942688
H    18.11000061  14.09999943  56.04000092
H    17.36999893  15.85000038  51.49000168
H    19.73999977  15.39999962  50.93999863
H    21.97999954  14.61999989  51.59000015
H    20.55999947  13.71999931  55.47999954
H    12.18999958  15.31000042  55.28999710
H    23.39999962  13.53999996  53.22000122
H    22.70000076  12.35999966  54.33000183
