96

S    12.30000019  16.36000061  44.02999878
C     9.55999947  17.02999878  44.86000061
C    10.88000107  16.50000000  45.12000275
C    11.26000023  16.00000000  46.45999908
C    10.34999943  16.11999893  47.48000336
C     9.02000046  16.61999893  47.29000092
C     8.01000023  16.61999893  48.29999924
C     6.70000029  16.87999916  47.98999786
C     6.37000036  17.43999863  46.72999954
C     7.36000013  17.64000130  45.86999893
C     8.65999985  17.09000015  45.93999863
C    12.64000034  15.65000057  46.53999710
C    13.40999985  15.88000107  45.37000275
C    14.80000019  15.81999969  45.33000183
C     4.88999987  17.63000107  46.31999969
H     4.59326458  17.08719063  45.42255402
H     9.28999996  17.52000046  43.93000031
H    10.65000057  15.73999977  48.46000290
H     8.19999981  16.11999893  49.25000000
H     5.91000032  16.47999954  48.62999725
H     7.09000015  18.23999977  45.00000000
H    15.29000092  16.04999924  44.38999939
H     4.30999994  17.28000069  47.18999863
H     4.65999985  18.68999863  46.13999939
S    15.72000027  15.29999924  49.13000107
C    18.47999954  15.01000023  48.54999924
C    17.22999954  15.26999950  48.13999939
C    16.87000084  15.51000023  46.84000015
C    17.94000053  15.70000076  45.91999817
C    19.29999924  15.44000053  46.25000000
C    20.31999969  15.27999973  45.21999741
C    21.56999969  14.80999947  45.63999939
C    21.94999886  14.48999977  46.91999817
C    20.93000031  14.56999969  47.84000015
C    19.60000038  15.07999992  47.56000137
C    15.46000004  15.59999943  46.53999710
C    14.72000027  15.50000000  47.75000000
C    13.31999969  15.52999973  47.74000168
C    23.29000092  14.01999950  47.38999939
H    23.51059723  14.46119118  48.36199951
H    18.64999962  14.63999939  49.54999924
H    17.77000046  15.92000008  44.86999893
H    20.03000069  15.48999977  44.20000076
H    22.36999893  14.75000000  44.89999771
H    20.95000076  14.06999969  48.80000305
H    12.76999950  15.47000027  48.67000198
H    23.94000053  14.30999947  46.55000305
H    23.45000076  12.93000031  47.43999863
S    11.71000004  17.02000046  50.76000214
C     9.15000057  17.46999931  51.50000000
C    10.31000042  16.84999847  51.77000046
C    10.59999943  16.38000107  53.04000092
C     9.61000061  16.28999901  53.99000168
C     8.30999947  16.72999954  53.68999863
C     7.23000002  16.69000053  54.62999725
C     6.00000000  17.19000053  54.31000137
C     5.73000002  17.68000031  53.01000214
C     6.75000000  17.73999977  52.05999756
C     8.05999947  17.39999962  52.41000366
C    12.03999996  16.28000069  53.26000214
C    12.72999954  16.51000023  52.08000183
C    14.09000015  16.50000000  51.98999786
C     4.32999992  18.12999916  52.71999741
H     3.83361077  17.44381523  52.03381348
H     9.06000042  17.97999954  50.54000092
H     9.98999977  16.03999901  54.97000122
H     7.42999983  16.46999931  55.68000031
H     5.23000002  17.34000015  55.06000137
H     6.48999977  18.07999992  51.05999756
H    14.47999954  16.84999847  51.04000092
H     3.78999996  18.12999916  53.68000031
H     4.42999983  19.19999886  52.50000000
S    15.21000004  15.47000027  55.72000122
C    17.84000015  15.17000008  55.00000000
C    16.61999893  15.54999924  54.66999817
C    16.31999969  15.98999977  53.34999847
C    17.36999893  15.98999977  52.44999695
C    18.71000099  15.72999954  52.84000015
C    19.89999962  15.80000019  51.95999908
C    21.11999893  15.19999981  52.34000397
C    21.37000084  14.73000050  53.61999893
C    20.29000092  14.70999908  54.45000076
C    19.00000000  15.21000004  54.13000107
C    14.86999989  16.25000000  53.11000061
C    14.14000034  15.88999939  54.27999878
C    12.76000023  15.88999939  54.36999893
C    22.70000076  14.22999954  54.15000153
H    22.99647522  14.80848789  55.02495956
H    17.90999985  14.70999908  55.97999954
H    17.23999977  16.20000076  51.38999939
H    19.80999947  16.18000031  50.93999863
H    21.91999817  15.11999989  51.59999847
H    20.52999878  14.39000034  55.45999908
H    12.31999969  15.75000000  55.35999680
H    23.44000053  14.30999947  53.34000015
H    22.65000153  13.17999935  54.47000122
