96

S    12.15000057  16.54000092  44.34999847
C     9.44000053  16.73999977  44.93000031
C    10.67999935  16.27000046  45.28999710
C    11.03999996  15.81999969  46.62000275
C    10.03999901  15.72999954  47.55000305
C     8.73000050  16.10000038  47.23999786
C     7.73000002  16.07999992  48.20000076
C     6.46000004  16.47999954  47.84000015
C     6.15000010  17.01000023  46.52000046
C     7.17000008  17.19000053  45.65000153
C     8.47000027  16.69999886  45.91999817
C    12.48000050  15.72999954  46.79999924
C    13.22000027  16.10000038  45.63000107
C    14.63999939  16.14999962  45.56999969
C     4.73000002  17.36999893  46.11000061
H     4.44716263  16.86641121  45.18560791
H     9.25000000  17.25000000  43.99000168
H    10.24000072  15.34000015  48.54000092
H     7.95000029  15.67000008  49.18000031
H     5.68000031  16.57999992  48.59000397
H     6.94999981  17.69000053  44.71000290
H    15.11999989  16.28000069  44.61000061
H     4.01999998  17.11000061  46.90999985
H     4.67000008  18.45999908  46.06999969
S    15.55999947  14.70000076  49.16999817
C    18.25000000  14.37000084  48.44999695
C    16.98999977  14.78000069  48.11000061
C    16.68000031  15.40999985  46.83000183
C    17.71999931  15.53999996  45.90999985
C    19.04999924  15.10000038  46.25999832
C    20.22999954  15.29999924  45.38000107
C    21.47000122  14.75999928  45.63999939
C    21.61000061  14.18000031  46.93999863
C    20.59000015  14.09000015  47.85999680
C    19.27999878  14.51000023  47.55000305
C    15.32999992  15.77999973  46.73999786
C    14.55999947  15.39000034  47.83000183
C    13.20000076  15.51000023  47.95000076
C    22.96999931  13.71999931  47.35000229
H    23.22120476  14.20024395  48.29570770
H    18.50000000  14.22999954  49.50000000
H    17.56999969  15.93000031  44.91000366
H    20.06000137  15.85000038  44.45000076
H    22.34000015  14.86999989  45.00000000
H    20.79999924  13.67000008  48.85000229
H    12.67000008  15.15999985  48.82999802
H    23.57000160  14.06000042  46.50000000
H    23.02999878  12.63000011  47.30999756
S    11.89000034  16.75000000  51.04999924
C     9.17000008  17.00000000  51.81000137
C    10.50000000  16.75000000  52.11999893
C    10.85999966  16.46000099  53.47999954
C     9.85000038  16.26000023  54.38999939
C     8.46000004  16.53000069  54.09999847
C     7.42000008  16.44000053  55.08999634
C     6.15999985  16.86000061  54.82999802
C     5.82000017  17.28000069  53.47000122
C     6.80999994  17.28999901  52.51999664
C     8.13000011  16.79000092  52.72999573
C    12.35000038  16.36000061  53.62999725
C    13.00000000  16.35000038  52.38999939
C    14.32999992  16.01000023  52.25000000
C     4.41000032  17.59000015  53.06999969
H     4.00638247  17.09591675  52.18621445
H     8.89999962  17.53000069  50.90000153
H    10.07999992  15.95999908  55.40999985
H     7.64999962  16.27000046  56.13999939
H     5.40999985  16.73999977  55.59999847
H     6.63000011  17.69000053  51.52000046
H    14.77000046  16.03999901  51.25999832
H     3.77999997  17.48999977  53.95999908
H     4.30000019  18.68000031  52.94000244
S    15.52000046  15.24000072  55.98999786
C    18.13999939  14.65000057  55.12000275
C    16.90000153  15.10000038  54.84000397
C    16.61000061  15.54999924  53.52000427
C    17.59000015  15.57999992  52.50999832
C    18.90999985  15.06999969  52.78999710
C    19.96000099  14.89999962  51.83000183
C    21.24000168  14.34999943  52.11999893
C    21.44000053  13.89000034  53.47000122
C    20.39999962  13.96999931  54.40999985
C    19.11999893  14.55000019  54.10999680
C    15.13000011  15.73999977  53.39000320
C    14.46000004  15.67999935  54.61999893
C    13.09000015  15.98000050  54.77000427
C    22.85000038  13.56999969  53.87000275
H    23.18017197  14.12497139  54.74812317
H    18.25000000  14.35999966  56.16000366
H    17.34000015  15.75000000  51.46999741
H    19.93999863  15.44000053  50.87999725
H    22.10000038  14.55999947  51.49000168
H    20.52000046  13.68000031  55.45000076
H    12.48999977  15.88000107  55.66999817
H    23.50000000  13.68000031  52.98999786
H    22.89999962  12.51999950  54.15999985
