96

S    12.39999962  16.73999977  44.01000214
C     9.68999958  16.90000153  44.59000015
C    10.97000027  16.48999977  44.98000336
C    11.28999901  16.10999870  46.27999878
C    10.27999973  16.10000038  47.22000122
C     8.92000008  16.50000000  46.90000153
C     7.83999968  16.38000107  47.81999969
C     6.60000038  16.82999992  47.43999863
C     6.30999994  17.28999901  46.11000061
C     7.32999992  17.43000031  45.19000244
C     8.64000034  16.97999954  45.54000092
C    12.71999931  16.03999901  46.52000046
C    13.48999977  16.27000046  45.30000305
C    14.86999989  16.23999977  45.26000214
C     4.90000010  17.60000038  45.77000046
H     4.60967064  17.29550934  44.76446915
H     9.42000008  17.36999893  43.64999771
H    10.52999973  15.67999935  48.18999863
H     8.01000023  15.88000107  48.76999664
H     5.79999971  16.56999969  48.13000107
H     7.17000008  17.82999992  44.20000076
H    15.43000031  16.59000015  44.40000153
H     4.26999998  17.01000023  46.44000244
H     4.77999973  18.65999985  46.00999832
S    15.82999992  15.32999992  48.95999908
C    18.47999954  14.85000038  48.34000015
C    17.30999947  15.39999962  47.95000076
C    17.01000023  15.80999947  46.63000107
C    18.09000015  15.92000008  45.77000046
C    19.31999969  15.39000034  46.12999725
C    20.38000107  15.52999973  45.19000244
C    21.63999939  15.11000061  45.58000183
C    21.83000183  14.48999977  46.83000183
C    20.86000061  14.30999947  47.69000244
C    19.57999992  14.80000019  47.41000366
C    15.57999992  16.01000023  46.44000244
C    14.80999947  15.82999992  47.64999771
C    13.43000031  15.77999973  47.72999573
C    23.22000122  14.04999924  47.25000000
H    23.48547935  14.60965729  48.14688492
H    18.51000023  14.30999947  49.29000092
H    18.12000084  16.45000076  44.81999969
H    20.13999939  15.93000031  44.20999908
H    22.49000168  15.31999969  44.93000031
H    20.96999931  13.96999931  48.72000122
H    12.89999962  15.70000076  48.67000198
H    23.82999802  14.13000011  46.33999634
H    23.03999901  12.98999977  47.48000336
S    15.80999947  12.82999992  52.14000320
C    18.45000076  12.13000107  51.63000107
C    17.20000076  12.23999977  51.13999939
C    16.72000122  11.77999973  49.86999893
C    17.72999954  11.36999989  49.05000305
C    19.05999947  11.31000042  49.43000031
C    20.02000046  10.80000019  48.50999832
C    21.31000137  10.72999954  48.93000031
C    21.75000000  11.00999928  50.31999969
C    20.76999855  11.47999954  51.20999908
C    19.44000053  11.61000061  50.76000214
C    15.31000042  12.05999947  49.65000153
C    14.70000076  12.61000061  50.81999969
C    13.36999989  12.90999985  50.90000153
C    23.21000099  11.02000046  50.68999863
H    23.43226433  11.04222679  51.75686646
H    18.57999992  12.38000011  52.68000031
H    17.59000015  11.18999958  47.97999954
H    19.78999901  10.65999985  47.44999695
H    22.10000038  10.40999985  48.26000214
H    21.04000092  11.84000015  52.19999695
H    13.00000000  13.36999989  51.81999969
H    23.46999931  10.03999901  50.26000214
H    23.84000015  11.69000053  50.08999634
S    11.85999966  12.13000107  47.37999725
C     9.25000000  12.74000072  48.22000122
C    10.59000015  12.79000092  48.40999985
C    11.13000011  13.12000084  49.66999817
C    10.31000042  13.53999996  50.61999893
C     8.97000027  13.47000027  50.54999924
C     8.07999992  13.89999962  51.58000183
C     6.74000025  13.93000031  51.38000107
C     6.14000034  13.60999966  50.13999939
C     6.97000027  13.17000008  49.10999680
C     8.36000061  13.07000065  49.31000137
C    12.56999969  12.81000042  49.81999969
C    13.09999943  12.25000000  48.63999939
C    14.44000053  11.90999985  48.50000000
C     4.67000008  13.86999989  49.81999969
H     4.44383574  13.55195618  48.80225754
H     8.90999985  12.58999920  47.19999695
H    10.72000027  14.04999924  51.47999573
H     8.59000015  14.39000034  52.41000366
H     6.17999983  14.52999973  52.09000015
H     6.50000000  13.04999924  48.13999939
H    14.75000000  11.54999924  47.52999878
H     4.46000004  14.94999981  49.79999924
H     3.98999977  13.38000107  50.52999878
