96

S    12.01000023  16.64999962  44.22000122
C     9.44000053  17.01000023  45.08999634
C    10.65999985  16.54000092  45.31999969
C    11.00999928  16.01000023  46.59000015
C    10.01000023  15.93999958  47.56999969
C     8.71000004  16.52000046  47.31999969
C     7.57000017  16.48999977  48.25000000
C     6.37000036  16.98999977  47.97000122
C     6.12999964  17.61999893  46.70999908
C     7.18999958  17.65999985  45.81999969
C     8.43999958  17.05000114  46.05999756
C    12.48000050  15.84000015  46.73999786
C    13.12000084  16.00000000  45.47999954
C    14.44000053  15.77000046  45.33000183
C     4.71000004  18.06999969  46.26999664
H     4.38941145  17.56820869  45.35701752
H     9.28999996  17.54999924  44.15999985
H    10.07999992  15.26999950  48.41999817
H     7.63000011  16.00000000  49.22000122
H     5.56999969  16.95999908  48.70999908
H     6.89000034  18.02000046  44.82999802
H    14.77000046  15.72999954  44.29999924
H     3.93000007  17.71000099  46.95000076
H     4.65999985  19.17000008  46.29000092
S    15.81999969  15.07999992  49.02999878
C    18.30999947  14.80000019  48.26000214
C    17.05999947  15.14999962  47.87000275
C    16.69999886  15.40999985  46.56000137
C    17.67000008  15.27999973  45.59999847
C    19.00000000  14.88000011  45.96000290
C    19.98999977  14.75999928  45.00000000
C    21.28000069  14.30999947  45.35999680
C    21.54999924  13.89999962  46.69000244
C    20.65999985  14.07999992  47.64999771
C    19.34000015  14.59000015  47.31999969
C    15.26000023  15.55999947  46.47999573
C    14.61999989  15.47999954  47.70999908
C    13.30000019  15.55999947  47.84000015
C    22.95000076  13.40000057  47.04000092
H    23.39007950  14.01322746  47.82637405
H    18.48999977  14.59000015  49.31999969
H    17.31999969  15.44999981  44.58000183
H    19.77000046  15.08999920  43.99000168
H    21.93000031  14.27999973  44.48999786
H    20.79999924  13.86000061  48.69999695
H    12.94000053  15.47000027  48.86000061
H    23.52000046  13.69999981  46.14999771
H    22.92000008  12.30999947  47.18000031
S    15.57000065  12.55000019  52.14000320
C    18.27999878  11.94000053  51.45000076
C    16.90999985  11.90999985  51.13999939
C    16.42000008  11.50000000  49.82999802
C    17.35999870  11.13999939  48.88999939
C    18.70000076  11.03999996  49.22999954
C    19.63999939  10.48999977  48.36000061
C    20.92000008  10.44999981  48.67000198
C    21.47999954  10.86999989  49.94999695
C    20.61000061  11.54000092  50.81999969
C    19.18000031  11.56000042  50.45999908
C    15.01999950  11.95000076  49.64000320
C    14.42999935  12.53000069  50.79999924
C    13.07999992  12.97000027  50.86000061
C    22.95999908  10.59999943  50.26000214
H    23.20628548  11.05836678  51.21778107
H    18.67000008  12.43000031  52.32999802
H    17.05000114  10.97000027  47.85999680
H    19.27000046  10.01000023  47.45999908
H    21.63000107  10.03999901  47.95999908
H    20.89999962  11.84999943  51.81999969
H    12.61999989  13.28999996  51.79000092
H    23.05999947   9.52000046  50.11000061
H    23.61999893  10.98000050  49.47000122
S    11.76000023  12.09000015  47.25000000
C     9.04999924  12.32999992  48.15000153
C    10.39999962  12.43000031  48.36000061
C    10.92000008  12.81999969  49.59000015
C    10.06000042  13.25000000  50.61000061
C     8.67999935  13.38000107  50.34000015
C     7.73000002  13.88000011  51.31000137
C     6.34999990  13.89999962  51.11999893
C     5.82000017  13.43000031  49.92000198
C     6.67999983  13.00000000  48.90999603
C     8.13000011  12.86000061  49.10999680
C    12.32999992  12.75000000  49.66999817
C    12.97000027  12.32999992  48.50999832
C    14.27999973  11.85999966  48.47000122
C     4.38000011  13.71999931  49.48999786
H     4.27160978  13.53934956  48.42055130
H     8.80000019  11.97999954  47.15000153
H    10.38000011  13.68999958  51.55000305
H     8.10999966  14.27000046  52.25000000
H     5.64000034  14.32999992  51.83000183
H     6.26999950  12.65999985  47.97000122
H    14.63999939  11.56999969  47.48000336
H     4.34999990  14.80999947  49.62999725
H     3.67000008  13.21000004  50.15999603
