96

S    12.20000076  16.03000069  43.89999771
C     9.48999977  16.25000000  44.64000320
C    10.78999996  15.90999985  44.94999695
C    11.16000080  15.59999943  46.27999878
C    10.24000072  15.57999992  47.35000229
C     8.92000008  15.86999989  47.01000214
C     7.99000025  15.95999908  48.08000183
C     6.65000010  16.35000038  47.76000214
C     6.26999950  16.75000000  46.42000198
C     7.23000002  16.67000008  45.45999908
C     8.56000042  16.21999931  45.68000031
C    12.56999969  15.55999947  46.42000198
C    13.27999973  15.75000000  45.20999908
C    14.68000031  15.55999947  45.07999802
C     4.90000010  17.27000046  46.04999924
H     4.42513227  16.66624069  45.27664566
H     9.22000027  16.84000015  43.76999664
H    10.39999962  15.52999973  48.41999817
H     8.34999943  15.69000053  49.06000137
H     5.88999987  16.48999977  48.53000259
H     7.00000000  16.88999939  44.41999817
H    15.24000072  15.62999916  44.15000153
H     4.30000019  17.38999939  46.95999908
H     5.07999992  18.30000114  45.70999908
S    15.75000000  14.78999996  48.90999603
C    18.36000061  14.00000000  48.15000153
C    17.13000107  14.53999996  47.77999878
C    16.82999992  14.93999958  46.42000198
C    17.78000069  14.91000080  45.45000076
C    19.10000038  14.37999916  45.84000015
C    20.17999840  14.55999947  44.93999863
C    21.42000008  14.13000011  45.30000305
C    21.64999962  13.48000050  46.52999878
C    20.69999886  13.59000015  47.50999832
C    19.40000153  13.96999931  47.15999985
C    15.39000034  15.32999992  46.27999878
C    14.68999958  15.29000092  47.52999878
C    13.27000046  15.36000061  47.60000229
C    23.09000015  13.26000023  46.93000031
H    23.43125534  13.83586693  47.79024506
H    18.38999939  13.38000107  49.03999710
H    17.63000107  15.38000011  44.47999954
H    19.96000099  14.96000099  43.95000076
H    22.22999954  14.25000000  44.58000183
H    20.95000076  13.27999973  48.52000427
H    12.76000023  15.06000042  48.52000427
H    23.75000000  13.28999996  46.04999924
H    23.21000099  12.18999958  47.18000031
S    16.22999954  12.20000076  52.15000153
C    18.81000137  11.49000072  51.58000183
C    17.52000046  11.43000031  51.23000336
C    17.13000107  11.07999992  49.86000061
C    18.04000092  10.54999924  48.92000198
C    19.43000031  10.67999935  49.22000122
C    20.43000031  10.31000042  48.36000061
C    21.68999863  10.19999981  48.81999969
C    22.04999924  10.57000065  50.15999603
C    21.14000130  11.21000099  51.00000000
C    19.79999924  11.17000008  50.59000015
C    15.67000008  11.33999920  49.69999695
C    15.14000034  11.97000027  50.81999969
C    13.82999992  12.46000099  50.89000320
C    23.39999962  10.25000000  50.72000122
H    23.54555321  10.51199627  51.76798630
H    19.06999969  11.71000004  52.61000061
H    17.71000099   9.98999977  48.04999924
H    20.03999901  10.03999901  47.37999725
H    22.40999985   9.68000031  48.20000076
H    21.45999908  11.52999973  51.98999786
H    13.43000031  12.79999924  51.84000015
H    23.62999916   9.19000053  50.54999924
H    24.17000008  10.77000046  50.14999771
S    12.25000000  11.54000092  47.44999695
C     9.61000061  11.80999947  48.36000061
C    10.95999908  11.96000004  48.57999802
C    11.49000072  12.31999969  49.85000229
C    10.62999916  12.69999981  50.84000015
C     9.22999954  12.75000000  50.59000015
C     8.43000031  13.28999996  51.62000275
C     7.09000015  13.50000000  51.31999969
C     6.54999971  13.07999992  50.01999664
C     7.30999994  12.30999947  49.19000244
C     8.69000053  12.23000050  49.34000015
C    12.94999981  12.15000057  49.85000229
C    13.52000046  11.64999962  48.64999771
C    14.80999947  11.18999958  48.55999756
C     5.13999987  13.45999908  49.66999817
H     4.92925215  13.04530144  48.68424225
H     9.19000053  11.46000004  47.41000366
H    10.93999958  13.10999966  51.79000092
H     8.82999992  13.76999950  52.50999832
H     6.43000031  14.19999981  51.84000015
H     6.98999977  11.95000076  48.20999908
H    15.19999981  10.78999996  47.62000275
H     5.01999950  14.55000019  49.73999786
H     4.42999983  13.09000015  50.40999985
