96

S    12.38000011  16.23999977  44.22000122
C     9.64999962  16.73999977  44.86000061
C    10.95999908  16.28000069  45.21999741
C    11.25000000  15.71000004  46.56000137
C    10.19999981  15.67000008  47.50000000
C     8.88000011  16.05999947  47.15999985
C     7.77999973  15.88999939  48.02999878
C     6.58999968  16.46000099  47.70999908
C     6.21999979  17.17000008  46.51000214
C     7.26999998  17.35999870  45.61999893
C     8.59000015  16.77999878  45.89000320
C    12.69000053  15.42000008  46.70999908
C    13.35000038  15.67999935  45.51000214
C    14.70000076  15.60999966  45.48999786
C     4.78999996  17.36999893  46.06999969
H     4.53684425  16.87071991  45.13472748
H     9.44999981  17.13000107  43.86000061
H    10.39000034  15.15999985  48.43999863
H     7.85000038  15.42000008  49.01000214
H     5.78000021  16.45000076  48.43999863
H     7.09000015  17.60000038  44.56999969
H    15.08999920  15.88000107  44.51000214
H     4.02999973  17.10000038  46.81000137
H     4.57999992  18.42000008  45.81999969
S    15.72000027  14.42000008  49.13000107
C    18.35000038  13.90999985  48.27999878
C    17.17000008  14.50000000  48.02999878
C    16.90000153  15.13000011  46.81000137
C    17.90999985  15.26000023  45.84000015
C    19.23999977  14.78999996  46.12999725
C    20.36000061  14.93999958  45.26000214
C    21.56999969  14.35999966  45.51000214
C    21.80000114  13.76000023  46.77999878
C    20.78000069  13.61999989  47.68000031
C    19.47000122  14.09999943  47.34000397
C    15.48999977  15.29999924  46.62000275
C    14.70000076  14.98000050  47.83000183
C    13.34000015  15.01999950  47.84999847
C    23.22000122  13.40999985  47.25000000
H    23.43561935  13.76936245  48.25621414
H    18.53999901  13.38000107  49.20999908
H    17.73999977  15.60999966  44.82999802
H    20.17999840  15.44999981  44.31999969
H    22.34000015  14.42999935  44.75000000
H    20.94000053  13.23999977  48.68999863
H    12.71999931  14.68000031  48.68000031
H    23.82999802  13.94000053  46.51000214
H    23.43000031  12.34000015  47.28000259
S    11.54000092  16.44000053  50.84999847
C     8.89999962  16.77999878  51.65000153
C    10.13000011  16.48999977  51.98999786
C    10.47000027  16.07999992  53.34000015
C     9.55000019  15.95000076  54.29000092
C     8.27000046  16.57999992  54.08000183
C     7.23000002  16.70999908  54.99000168
C     5.96000004  17.12000084  54.64000320
C     5.72000027  17.43000031  53.31999969
C     6.71000004  17.27000046  52.41000366
C     7.95000029  16.84999847  52.72999573
C    11.92000008  15.86999989  53.52000427
C    12.61999989  16.02000046  52.29000092
C    13.99000072  15.85000038  52.22000122
C     4.40000010  17.86999893  52.87000275
H     4.00009727  17.22015762  52.09161758
H     8.53999996  16.92000008  50.63999939
H     9.94999981  15.71000004  55.27000046
H     7.42999983  16.17000008  55.91999817
H     5.09999990  17.05000114  55.30000305
H     6.53999996  17.63000107  51.39999771
H    14.59000015  16.11999893  51.36000061
H     3.77999997  17.73999977  53.76999664
H     4.39000034  18.95000076  52.70999908
S    15.13000011  15.38000011  56.00999832
C    17.86000061  14.92000008  55.30000305
C    16.52000046  15.21000004  54.91000366
C    16.18000031  15.48999977  53.52000427
C    17.10000038  15.43000031  52.50999832
C    18.44000053  15.05000019  52.84000015
C    19.45000076  14.85999966  51.86000061
C    20.69999886  14.51000023  52.19999695
C    21.00000000  14.25000000  53.56999969
C    20.07999802  14.34999943  54.56999969
C    18.78999901  14.82999992  54.22000122
C    14.73000050  15.55999947  53.37999725
C    14.01999950  15.48999977  54.65999985
C    12.65999985  15.67999935  54.72999954
C    22.43000031  13.86999989  53.96999741
H    22.68443108  14.30111599  54.93824387
H    18.09000015  14.60999966  56.31999969
H    16.84000015  15.67999935  51.49000168
H    19.15999985  15.13000011  50.84999847
H    21.42999840  14.40999985  51.38999939
H    20.36000061  14.34000015  55.61999893
H    12.18000031  15.65000057  55.70000076
H    23.05999947  14.21000004  53.13999939
H    22.65999985  12.79999924  53.89999771
