96

S    12.10999966  16.69999886  44.20999908
C     9.39000034  17.27000046  45.06000137
C    10.64000034  16.67000008  45.25000000
C    11.03000069  16.21000099  46.56000137
C    10.07999992  16.04999924  47.54000092
C     8.75000000  16.36999893  47.32999802
C     7.68000031  16.20000076  48.25000000
C     6.38999987  16.61999893  47.95999908
C     6.05999994  17.13000107  46.68000031
C     7.04999971  17.39999962  45.84999847
C     8.40999985  17.01000023  46.04999924
C    12.50000000  16.04999924  46.72999954
C    13.22000027  16.44000053  45.58000183
C    14.61999989  16.45000076  45.52000046
C     4.59999990  17.30999947  46.31999969
H     4.33793879  16.73492241  45.43190765
H     9.01000023  17.85000038  44.20999908
H    10.42000008  15.73999977  48.53000259
H     7.94000053  15.76000023  49.20999908
H     5.58000040  16.55999947  48.68000031
H     6.91999960  17.84000015  44.86999893
H    15.07999992  16.56999969  44.54999924
H     3.91999984  16.86000061  47.04999924
H     4.44999981  18.39999962  46.30000305
S    15.59999943  15.03999901  49.08000183
C    18.25000000  14.85999966  48.39000320
C    17.01000023  15.24000072  48.06999969
C    16.65999985  15.78999996  46.79000092
C    17.65999985  15.77000046  45.79999924
C    18.97999954  15.42000008  46.09000397
C    20.05000114  15.36000061  45.13000107
C    21.40999985  15.01999950  45.38000107
C    21.68999863  14.55999947  46.69000244
C    20.68000031  14.47999954  47.64999771
C    19.32999992  14.96000099  47.42000198
C    15.29999924  16.07999992  46.68000031
C    14.57999992  15.69000053  47.81999969
C    13.22999954  15.57000065  47.83000183
C    23.12999916  14.19000053  47.01000214
H    23.55625916  14.80097294  47.80568695
H    18.44000053  14.27000046  49.29000092
H    17.47999954  16.04999924  44.75999832
H    19.71999931  15.76000023  44.18000031
H    22.07999992  15.03000069  44.52000046
H    20.98999977  14.13000011  48.63999939
H    12.69000053  15.22999954  48.72000122
H    23.61000061  14.42000008  46.04999924
H    23.12000084  13.10999966  47.18999863
S    11.73999977  16.69000053  50.77000046
C     9.07999992  17.05999947  51.63000107
C    10.32999992  16.57999992  51.88999939
C    10.67999935  16.21999931  53.22999954
C     9.64999962  16.18000031  54.19000244
C     8.30999947  16.68000031  53.89999771
C     7.26999998  16.61000061  54.88999939
C     6.00000000  16.95000076  54.50000000
C     5.71000004  17.47999954  53.27000046
C     6.72999954  17.56999969  52.42000198
C     8.05000019  17.20000076  52.63000107
C    12.13000107  16.06999969  53.33000183
C    12.89000034  16.31000137  52.16999817
C    14.29999924  16.36999893  52.04999924
C     4.26999998  17.79999924  52.95000076
H     3.99432135  17.40715790  51.97134018
H     8.84000015  17.51000023  50.65999985
H     9.82999992  15.77999973  55.18000031
H     7.44000006  16.05999947  55.81999969
H     5.18000031  16.63999939  55.13000107
H     6.54999971  17.75000000  51.36000061
H    14.91000080  16.39999962  51.14999771
H     3.63999987  17.32999992  53.72000122
H     4.03999996  18.86999893  53.02000046
S    15.21000004  15.43000031  55.75000000
C    17.94000053  15.03999901  55.04000092
C    16.68000031  15.48999977  54.66999817
C    16.39000130  15.95000076  53.34999847
C    17.46000099  16.03000069  52.45999908
C    18.79999924  15.69000053  52.81999969
C    19.80999947  15.65000057  51.84999847
C    21.04999924  15.06999969  52.09999847
C    21.32999802  14.68999958  53.40000153
C    20.38999939  14.70000076  54.40999985
C    19.04999924  15.18000031  54.15999985
C    14.94999981  16.21999931  53.22999954
C    14.21000004  15.95999908  54.43000031
C    12.84999943  15.81999969  54.51000214
C    22.75000000  14.26000023  53.72000122
H    22.98835564  14.65003395  54.70952606
H    18.09000015  14.52000046  55.98999786
H    17.27000046  16.17000008  51.39999771
H    19.55000114  15.80999947  50.79999924
H    21.76000214  14.96999931  51.27999878
H    20.52999878  14.27999973  55.40000153
H    12.35999966  15.77000046  55.47000122
H    23.42000008  14.61999989  52.93000031
H    22.96999931  13.19000053  53.79000092
