96

S    12.20999908  16.17000008  43.87000275
C     9.55999947  16.70999908  44.54999924
C    10.80000019  16.35000038  44.95999908
C    11.13000011  16.03000069  46.27999878
C    10.11999989  15.92000008  47.22999954
C     8.78000069  16.32999992  46.84999847
C     7.71000004  16.48999977  47.80000305
C     6.42000008  16.79000092  47.38999939
C     6.17999983  17.15999985  46.04000092
C     7.23000002  17.14999962  45.10000229
C     8.53999996  16.75000000  45.51000214
C    12.57999992  15.82999992  46.38999939
C    13.27999973  15.95999908  45.20999908
C    14.68999958  15.84000015  45.13999939
C     4.76999998  17.61000061  45.77000046
H     4.44015312  17.12897301  44.84917831
H     9.44000053  17.12000084  43.54999924
H    10.32999992  15.88000107  48.29999924
H     8.01999950  16.28000069  48.81999969
H     5.59999990  16.70999908  48.09999847
H     7.11999989  17.67000008  44.15999985
H    15.17000008  15.88000107  44.16999817
H     4.15999985  17.47999954  46.68000031
H     4.76000023  18.70000076  45.61999893
S    15.72999954  14.94999981  48.86000061
C    18.26000023  14.37999916  48.18999863
C    17.06999969  14.96999931  47.84999847
C    16.79999924  15.43000031  46.53999710
C    17.82999992  15.48999977  45.66999817
C    19.19000053  15.06000042  45.97999954
C    20.31999969  15.11000061  45.12000275
C    21.56999969  14.73000050  45.48999786
C    21.71999931  14.13000011  46.72000122
C    20.63999939  14.04999924  47.62000275
C    19.34999847  14.44000053  47.22999954
C    15.38000011  15.64000034  46.30000305
C    14.67000008  15.34999943  47.48000336
C    13.25000000  15.34999943  47.49000168
C    23.03999901  13.60000038  47.15999985
H    23.38681793  14.19562149  48.00442505
H    18.38000107  13.90999985  49.15999985
H    17.78000069  15.78999996  44.61999893
H    20.17999840  15.52999973  44.12000275
H    22.43000031  14.77000046  44.81999969
H    20.82999992  13.64999962  48.61000061
H    12.71000004  15.11000061  48.39000320
H    23.72999954  13.82999992  46.32999802
H    22.86999893  12.53000069  47.29000092
S    11.85999966  16.54000092  50.80999756
C     9.19000053  17.22999954  51.45000076
C    10.36999893  16.77999878  51.84999847
C    10.72000027  16.59000015  53.22999954
C     9.72000027  16.61000061  54.19000244
C     8.38999939  16.87000084  53.74000168
C     7.34000015  16.90000153  54.71000290
C     6.15999985  17.42000008  54.38999939
C     5.84999990  17.86999893  53.06999969
C     6.80000019  17.72999954  52.04000092
C     8.09000015  17.22999954  52.37999725
C    12.20999908  16.47999954  53.44999695
C    12.89999962  16.60000038  52.25000000
C    14.32999992  16.60000038  52.19999695
C     4.42000008  18.30000114  52.75000000
H     4.04749107  17.66454315  51.94654846
H     8.97000027  17.47999954  50.40999985
H    10.00000000  16.39999962  55.20999908
H     7.50000000  16.68000031  55.76000214
H     5.45000029  17.46999931  55.20000076
H     6.70000029  17.86999893  50.96000290
H    14.91000080  16.53000069  51.29000092
H     3.81999993  18.18000031  53.66000366
H     4.44999981  19.36000061  52.47000122
S    15.42000008  15.72999954  55.86999893
C    18.02999878  14.80000019  54.93999863
C    16.77999878  15.44000053  54.75000000
C    16.45000076  15.98999977  53.43999863
C    17.39999962  15.98999977  52.43999863
C    18.67000008  15.44999981  52.70999908
C    19.67000008  15.46000004  51.76000214
C    20.88000107  14.89999962  52.02000046
C    21.24000168  14.45000076  53.29000092
C    20.29000092  14.32000065  54.22000122
C    18.97999954  14.81999969  53.95999908
C    15.03000069  16.28000069  53.30999756
C    14.34999943  16.10999870  54.51000214
C    12.90999985  16.21000099  54.61000061
C    22.65999985  14.01999950  53.57999802
H    22.99197578  14.54268551  54.47704315
H    18.40999985  14.37000084  55.86000061
H    17.07999992  16.34000015  51.45999908
H    19.40000153  16.00000000  50.84999847
H    21.55999947  14.70999908  51.18999863
H    20.48000145  13.89000034  55.20000076
H    12.34000015  16.10999870  55.52999878
H    23.39999962  14.19000053  52.78999710
H    22.72999954  12.94000053  53.73000336
