96

S    12.28999996  16.51000023  44.27999878
C     9.70000076  17.00000000  45.02999878
C    10.93000031  16.52000046  45.34999847
C    11.25000000  16.09000015  46.70000076
C    10.15999985  15.93000031  47.64999771
C     8.86999989  16.45000076  47.29999924
C     7.79999971  16.31000137  48.22999954
C     6.56000042  16.76000023  47.87000275
C     6.30999994  17.32999992  46.55000305
C     7.35000038  17.47999954  45.66999817
C     8.63000011  17.01000023  45.97999954
C    12.64999962  16.05999947  46.84999847
C    13.40000057  16.21000099  45.61000061
C    14.78000069  16.25000000  45.56999969
C     4.94000006  17.71999931  46.10000229
H     4.53794241  16.95178223  45.43947601
H     9.50000000  17.34000015  44.02000046
H    10.25000000  15.48999977  48.63999939
H     7.94000053  15.97000027  49.26000214
H     5.84000015  16.80999947  48.68000031
H     7.28999996  17.93000031  44.68000031
H    15.36999893  16.36000061  44.66999817
H     4.30000019  17.75000000  46.98999786
H     4.77999973  18.68999863  45.61000061
S    15.98000050  15.27999973  49.27999878
C    18.60000038  14.81999969  48.48999786
C    17.35999870  15.42000008  48.27000046
C    16.92000008  15.93000031  47.00000000
C    17.86000061  16.02000046  45.98999786
C    19.14999962  15.52000046  46.23000336
C    20.13999939  15.52999973  45.19000244
C    21.45999908  15.10000038  45.47000122
C    21.80000114  14.63999939  46.75000000
C    20.86999893  14.51000023  47.70000076
C    19.52999878  14.86999989  47.45999908
C    15.44999981  15.98000050  46.77000046
C    14.78000069  15.67999935  47.98999786
C    13.38000107  15.86999989  48.04000092
C    23.23999786  14.45000076  47.06999969
H    23.48786163  14.95280743  48.00479889
H    18.89000130  14.25000000  49.36999893
H    17.52000046  16.13999939  44.95999908
H    19.88000107  16.10999870  44.31000137
H    22.18000031  15.06000042  44.65999985
H    21.14999962  14.29999924  48.73000336
H    12.84000015  15.75000000  48.96999741
H    23.84000015  14.96999931  46.31000137
H    23.35000038  13.35999966  47.04999924
S    16.28000069  12.43999958  52.06999969
C    18.88000107  12.20000076  51.29000092
C    17.56999969  12.01000023  51.04999924
C    17.12000084  11.73999977  49.75000000
C    18.06999969  11.51000023  48.68999863
C    19.48999977  11.44999981  48.97999573
C    20.55000114  10.93000031  48.15999985
C    21.84999847  10.72999954  48.59000397
C    22.13999939  11.10000038  49.94999695
C    21.19999886  11.63000011  50.79000092
C    19.88000107  11.87000084  50.33000183
C    15.69000053  11.90000057  49.65000153
C    15.11999989  12.31999969  50.84999847
C    13.73999977  12.61999989  51.00000000
C    23.52000046  10.72000027  50.52999878
H    23.70623016  11.08529758  51.53993607
H    19.22000122  12.50000000  52.28000259
H    17.73999977  11.13999939  47.71999741
H    20.17999840  10.67000008  47.16999817
H    22.56999969  10.17000008  48.01000214
H    21.35999870  11.76000023  51.84999847
H    13.28999996  12.81000042  51.97000122
H    23.61000061   9.61999989  50.59000015
H    24.27000046  11.14999962  49.86999893
S    12.46999931  11.84999943  47.32999802
C     9.76000023  12.01000023  48.15999985
C    11.10999966  12.13000107  48.37999725
C    11.54000092  12.55000019  49.72999954
C    10.59000015  13.00000000  50.66999817
C     9.23999977  13.00000000  50.31000137
C     8.27999973  13.57999992  51.16000366
C     6.89000034  13.48000050  50.90999985
C     6.47000027  12.92000008  49.68000031
C     7.42999983  12.57999992  48.72000122
C     8.84000015  12.51000023  49.06999969
C    12.94999981  12.48999977  49.86999893
C    13.60999966  12.20000076  48.62999725
C    14.92000008  11.87999916  48.46000290
C     5.05000019  13.22000027  49.22000122
H     4.83212090  12.87139416  48.21049500
H     9.26000023  11.65999985  47.25999832
H    10.90999985  13.23999977  51.68000031
H     8.63000011  14.17000008  52.00000000
H     6.15000010  14.04999924  51.45999908
H     7.03999996  12.34000015  47.72999573
H    15.27999973  11.56000042  47.48000336
H     5.03000021  14.30999947  49.23999786
H     4.21999979  12.81000042  49.79999924
