96

S    12.06999969  16.82999992  44.36000061
C     9.39000034  16.90999985  45.17000198
C    10.65999985  16.50000000  45.48999786
C    11.02000046  16.13999939  46.76000214
C    10.06999969  16.03999901  47.69000244
C     8.69000053  16.47999954  47.43000031
C     7.59999990  16.38000107  48.34000015
C     6.34999990  16.73999977  48.01000214
C     6.02999973  17.20999908  46.73999786
C     7.03999996  17.34000015  45.80999756
C     8.38999939  16.95999908  46.10000229
C    12.48000050  15.93999958  46.81000137
C    13.17999935  16.21000099  45.59999847
C    14.56999969  16.18000031  45.61000061
C     4.65999985  17.67000008  46.36000061
H     4.32342434  17.26330376  45.40636826
H     9.22000027  17.14999962  44.12000275
H    10.32999992  15.51000023  48.61000061
H     7.88000011  15.90000057  49.27000046
H     5.56999969  16.59000015  48.75000000
H     6.86999989  17.80999947  44.84000397
H    15.10000038  16.35000038  44.68000031
H     3.94000006  17.43999863  47.15000153
H     4.71000004  18.77000046  46.37000275
S    15.76000023  15.06000042  49.18000031
C    18.42000008  14.98999977  48.30999756
C    17.14999962  15.32999992  48.09999847
C    16.70999908  15.77999973  46.77000046
C    17.68000031  15.98999977  45.84000015
C    19.03000069  15.57999992  46.05999756
C    20.07999802  15.53999996  45.11000061
C    21.38999939  15.34999943  45.38999939
C    21.73999977  14.86999989  46.70999908
C    20.73999786  14.67000008  47.60000229
C    19.42000008  15.03000069  47.29999924
C    15.29999924  15.93999958  46.72999954
C    14.63000107  15.50000000  47.87000275
C    13.26000023  15.54999924  47.94000244
C    23.15000153  14.60999966  47.02000046
H    23.37255287  14.85480690  48.05857468
H    18.71999931  14.53999996  49.25000000
H    17.46000099  16.23999977  44.79999924
H    19.85999870  15.82999992  44.09000015
H    22.15999985  15.39999962  44.61999893
H    20.86999893  14.32000065  48.61999893
H    12.75000000  15.39999962  48.88999939
H    23.69999886  15.19000053  46.26999664
H    23.45000076  13.60000038  46.72999954
S    15.88999939  12.71000004  52.36999893
C    18.61999893  12.01000023  51.70000076
C    17.20999908  12.01000023  51.36000061
C    16.77999878  11.54999924  50.13000107
C    17.67000008  11.23999977  49.13000107
C    19.09000015  11.23999977  49.33000183
C    20.00000000  10.62000084  48.39000320
C    21.34000015  10.69000053  48.61000061
C    21.80000114  11.18000031  49.92000198
C    20.88000107  11.59000015  50.93999863
C    19.52000046  11.61999893  50.65000153
C    15.34999943  11.72999954  49.93000031
C    14.80000019  12.43000031  51.02000427
C    13.53999996  12.93000031  50.98999786
C    23.23999786  11.00000000  50.21999741
H    23.50731277  11.32359123  51.22594452
H    19.07999992  12.39999962  52.60000229
H    17.28999901  10.71000004  48.25000000
H    19.62000084  10.00000000  47.57999802
H    22.04999924  10.22999954  47.93000031
H    21.31999969  11.75000000  51.91999817
H    13.10999966  13.30999947  51.90999985
H    23.44000053   9.92000008  50.26000214
H    23.85000038  11.44999981  49.43000031
S    12.01000023  11.82000065  47.49000168
C     9.40999985  12.23999977  48.40999985
C    10.80000019  12.51999950  48.54999924
C    11.39999962  13.02999973  49.72000122
C    10.51000023  13.40999985  50.70000076
C     9.06000042  13.19000053  50.63999939
C     8.22000027  13.63000011  51.70000076
C     6.84999990  13.53999996  51.51000214
C     6.32000017  13.12999916  50.22999573
C     7.14999962  12.53999901  49.27999878
C     8.53999996  12.61999989  49.47000122
C    12.81999969  12.77999973  49.78000259
C    13.35000038  12.15999985  48.66000366
C    14.63000107  11.65999985  48.74000168
C     4.90000010  13.55000019  49.85000229
H     4.63632107  13.17942333  48.85942459
H     8.97999954  11.89000034  47.47000122
H    10.85000038  13.96999931  51.56999969
H     8.65999985  14.23999977  52.48000336
H     6.23000050  14.14999962  52.15999985
H     6.80999994  12.13999939  48.33000183
H    15.13000011  11.21000099  47.88999939
H     4.85000038  14.65000057  49.86999893
H     4.13000011  13.26000023  50.56999969
