96

S    12.13999939  16.10000038  44.02999878
C     9.39000034  16.61999893  44.72999954
C    10.65000057  16.13000107  45.06999969
C    10.95999908  15.72000027  46.42000198
C     9.98999977  15.77999973  47.38999939
C     8.76999950  16.34000015  47.11000061
C     7.79999971  16.50000000  48.16999817
C     6.51000023  16.97999954  47.83000183
C     6.14000034  17.21999931  46.50000000
C     7.13999987  17.25000000  45.56000137
C     8.43000031  16.68000031  45.79000092
C    12.41000080  15.60999966  46.60999680
C    13.15000057  15.70000076  45.43000031
C    14.52000046  15.70000076  45.43000031
C     4.74000025  17.56000137  46.11000061
H     4.44664097  17.07106781  45.18103027
H     9.11999989  16.95999908  43.74000168
H    10.18000031  15.55999947  48.43999863
H     7.97999954  15.98000050  49.10999680
H     5.73000002  16.92000008  48.57999802
H     6.94000006  17.73999977  44.61000061
H    15.06000042  15.90999985  44.51000214
H     4.00000000  17.35999870  46.88999939
H     4.76999998  18.64999962  45.97999954
S    15.67999935  15.24000072  49.13999939
C    18.30999947  14.92000008  48.47000122
C    17.05999947  15.27999973  48.06999969
C    16.73999977  15.59999943  46.72999954
C    17.65999985  15.57000065  45.76000214
C    18.98999977  15.19999981  46.05999756
C    20.06999969  15.13000011  45.13000107
C    21.35000038  14.75000000  45.40999985
C    21.78999901  14.63999939  46.81000137
C    20.81000137  14.77000046  47.77999878
C    19.40000153  14.93000031  47.44999695
C    15.29000092  15.69000053  46.59000015
C    14.59000015  15.57000065  47.81000137
C    13.15000057  15.59000015  47.80000305
C    23.31000137  14.45000076  47.11000061
H    23.52924156  14.77886200  48.12581635
H    18.47999954  14.63000107  49.51000214
H    17.32999992  15.65999985  44.72999954
H    19.79999924  15.53999996  44.16999817
H    22.01999855  14.70000076  44.55999756
H    21.19999886  14.78000069  48.80000305
H    12.61000061  15.59999943  48.75000000
H    23.97999954  14.91000080  46.38000107
H    23.45999908  13.35999966  47.05999756
S    15.92000008  12.61000061  52.47000122
C    18.65999985  12.27000046  51.59000015
C    17.30999947  12.22000027  51.36000061
C    16.81999969  11.89000034  50.07999802
C    17.71000099  11.57999992  49.06999969
C    19.11000061  11.51000023  49.31999969
C    19.98999977  10.95000076  48.41999817
C    21.27000046  10.78999996  48.80000305
C    21.80999947  11.13999939  50.07999802
C    20.95000076  11.76000023  50.94999695
C    19.55999947  11.90000057  50.61999893
C    15.34000015  12.00000000  49.93999863
C    14.72000027  12.44999981  51.17000198
C    13.38000107  12.82999992  51.19999695
C    23.26999855  10.88999939  50.26000214
H    23.63554192  11.32865047  51.18847656
H    18.93000031  12.61000061  52.58999634
H    17.25000000  11.44999981  48.09999847
H    19.56999969  10.46000004  47.55000305
H    21.94999886  10.15999985  48.22999954
H    21.35000038  12.18999958  51.86999893
H    12.96000004  13.23999977  52.11999893
H    23.59000015   9.85000038  50.12000275
H    23.68000031  11.44000053  49.40000153
S    11.92999935  11.90000057  47.68000031
C     9.25000000  12.30999947  48.50999832
C    10.60999966  12.32999992  48.75999832
C    11.09000015  12.65999985  50.05000305
C    10.19999981  13.25000000  50.96000290
C     8.78999996  13.15000057  50.77000046
C     7.82000017  13.78000069  51.63000107
C     6.46000004  13.89999962  51.25000000
C     6.09000015  13.40000057  49.98000336
C     6.93000031  12.67000008  49.20000076
C     8.28999996  12.61000061  49.54000092
C    12.53000069  12.55000019  50.10000229
C    13.15999985  12.13000107  48.89999771
C    14.50000000  11.77999973  48.81000137
C     4.79999971  13.82999992  49.40000153
H     4.61746359  13.32619953  48.45080948
H     8.89999962  12.02999973  47.51999664
H    10.54999924  13.76000023  51.86000061
H     8.15999985  14.14999962  52.58999634
H     5.69000006  14.39000034  51.84000015
H     6.71000004  12.44999981  48.15999985
H    14.81999969  11.47999954  47.81999969
H     4.86999989  14.91000080  49.22000122
H     3.95000005  13.68000031  50.07999802
