96

S    12.35000038  16.77999878  44.15999985
C     9.68000031  17.43000031  44.93000031
C    10.95000076  16.90999985  45.20999908
C    11.26999950  16.61000061  46.62000275
C    10.29000092  16.51000023  47.54000092
C     8.94999981  16.77000046  47.22000122
C     7.85000038  16.50000000  48.06999969
C     6.57000017  16.92000008  47.77000046
C     6.34000015  17.48999977  46.50000000
C     7.35000038  17.64999962  45.59000015
C     8.67000008  17.35000038  45.90000153
C    12.69000053  16.31999969  46.77000046
C    13.38999939  16.39000130  45.59999847
C    14.75000000  16.40999985  45.54999924
C     4.96000004  18.02999878  46.11999893
H     4.52495956  17.49299622  45.27710724
H     9.51000023  17.86999893  43.95000076
H    10.47000027  16.13999939  48.54000092
H     8.03999996  16.10000038  49.06000137
H     5.78999996  16.95000076  48.52000427
H     7.26000023  18.22999954  44.68000031
H    15.17000008  16.53000069  44.55999756
H     4.34999990  17.93000031  47.02000046
H     5.05999994  19.09000015  45.84999847
S    15.80999947  15.55999947  49.34000015
C    18.47999954  15.10000038  48.62999725
C    17.19000053  15.47000027  48.27000046
C    16.90999985  15.92000008  46.95000076
C    17.89999962  16.06999969  45.98999786
C    19.20999908  15.57999992  46.20999908
C    20.27000046  15.70000076  45.26000214
C    21.53000069  15.29000092  45.56999969
C    21.83000183  14.72000027  46.86000061
C    20.88000107  14.63999939  47.83000183
C    19.52000046  15.03999901  47.55000305
C    15.48999977  16.26000023  46.73999786
C    14.77000046  16.13000107  47.98999786
C    13.40999985  16.11999893  48.00000000
C    23.26000023  14.34000015  47.19999695
H    23.60282326  14.77035236  48.14093781
H    18.60999870  14.75000000  49.65999985
H    17.76000023  16.34000015  44.94999695
H    20.15999985  16.10999870  44.26000214
H    22.36000061  15.31000042  44.86000061
H    21.05999947  14.40000057  48.87000275
H    12.94999981  15.97000027  48.96999741
H    23.92000008  14.53999996  46.36000061
H    23.29000092  13.25000000  47.30999756
S    11.72999954  17.47999954  50.90000153
C     8.96000004  17.64000130  51.47999573
C    10.25000000  17.34000015  51.93000031
C    10.57999992  16.90999985  53.23999786
C     9.59000015  16.86000061  54.19000244
C     8.28999996  17.43999863  53.82999802
C     7.23999977  17.32999992  54.75999832
C     5.93999958  17.51000023  54.41999817
C     5.55999994  17.87999916  53.06999969
C     6.60000038  17.97000122  52.11000061
C     7.96999979  17.65999985  52.45999908
C    12.02000046  16.81999969  53.47000122
C    12.75000000  17.18000031  52.32999802
C    14.18000031  17.12000084  52.31999969
C     4.13999987  18.27000046  52.64999771
H     3.82886600  17.76087189  51.73781204
H     8.80999947  17.90999985  50.43000031
H     9.70000076  16.31999969  55.13000107
H     7.50999975  16.81999969  55.68999863
H     5.25000000  17.47999954  55.26000214
H     6.34000015  18.17000008  51.07999802
H    14.73000050  17.22999954  51.38999939
H     3.48000002  18.05999947  53.50000000
H     4.17000008  19.34000015  52.43000031
S    15.07999992  15.65999985  55.86000061
C    17.82999992  15.29000092  55.19000244
C    16.54000092  15.73999977  54.85000229
C    16.21000099  16.25000000  53.55999756
C    17.21999931  16.38000107  52.54000092
C    18.46999931  15.84000015  52.80000305
C    19.51000023  15.80999947  51.84999847
C    20.76999855  15.26000023  52.18000031
C    21.07999992  14.85000038  53.53000259
C    20.13000107  14.88999939  54.51000214
C    18.81999969  15.34999943  54.10999680
C    14.82999992  16.65999985  53.47999954
C    14.04999924  16.25000000  54.61000061
C    12.63000011  16.36999893  54.61999893
C    22.46000099  14.55999947  53.86000061
H    22.88540840  15.14677048  54.67414474
H    18.05999947  15.14999962  56.25000000
H    16.97000122  16.75000000  51.53999710
H    19.22000122  16.25000000  50.90000153
H    21.47000122  15.31000042  51.35000229
H    20.25000000  14.60999966  55.54999924
H    12.03999996  16.10000038  55.48999786
H    23.09999847  14.68000031  52.97999954
H    22.56000137  13.50999928  54.16999817
