96

S    12.20000076  16.46000099  44.22999954
C     9.57999992  17.11000061  45.07999802
C    10.82999992  16.54000092  45.30000305
C    11.18999958  16.02000046  46.56000137
C    10.21000004  15.93000031  47.56000137
C     8.92000008  16.54000092  47.38999939
C     7.86999989  16.53000069  48.36999893
C     6.57999992  16.98999977  48.04999924
C     6.34000015  17.56000137  46.81999969
C     7.28999996  17.61000061  45.89000320
C     8.63000011  17.13999939  46.11999893
C    12.56000042  15.62999916  46.70999908
C    13.25000000  15.80999947  45.47999954
C    14.63000107  15.81999969  45.37000275
C     4.96000004  17.81999969  46.25000000
H     4.66034365  17.23530388  45.38026428
H     9.25000000  17.21999931  44.05000305
H    10.36000061  15.53999996  48.55999756
H     8.10000038  16.06999969  49.33000183
H     5.78999996  16.80999947  48.76999664
H     7.14999962  17.94000053  44.86000061
H    15.08999920  16.25000000  44.47999954
H     4.15000010  17.71999931  46.97999954
H     4.85000038  18.89000130  46.00999832
S    15.81999969  15.36000061  49.15999985
C    18.46999931  14.93999958  48.29999924
C    17.21999931  15.42000008  48.00000000
C    16.81999969  15.70000076  46.68000031
C    17.71999931  15.77000046  45.65999985
C    19.03000069  15.47000027  45.93000031
C    20.06999969  15.51000023  44.94999695
C    21.35999870  15.03000069  45.24000168
C    21.63999939  14.56999969  46.53999710
C    20.73999786  14.47000027  47.50000000
C    19.42000008  14.91000080  47.25000000
C    15.34000015  15.64000034  46.56000137
C    14.70999908  15.40999985  47.81000137
C    13.27000046  15.42000008  47.88000107
C    23.02999878  14.14000034  46.84000015
H    23.27192688  14.34045315  47.88373947
H    18.61999893  14.40000057  49.22999954
H    17.46999931  15.90999985  44.61000061
H    19.95000076  16.09000015  44.03999710
H    22.11999893  14.94999981  44.47000122
H    21.04999924  14.18000031  48.50000000
H    12.69999981  15.34000015  48.80000305
H    23.68000031  14.48999977  46.02000427
H    22.98999977  13.04999924  46.76000214
S    11.73999977  16.72000122  50.87999725
C     9.15000057  17.32999992  51.65999985
C    10.39000034  16.87000084  52.02000046
C    10.70000076  16.45000076  53.31999969
C     9.65999985  16.46999931  54.26000214
C     8.36000061  16.92000008  53.88999939
C     7.31999969  16.97999954  54.77000427
C     6.02999973  17.38000107  54.43000031
C     5.69999981  17.68000031  53.09000015
C     6.69000053  17.50000000  52.12999725
C     8.02999973  17.18000031  52.56000137
C    12.09000015  16.10999870  53.47999954
C    12.79999924  16.28999901  52.21000290
C    14.11999893  16.26000023  52.11999893
C     4.30000019  18.02000046  52.74000168
H     3.91417193  17.28474236  52.03386307
H     8.93999958  17.70000076  50.65999985
H     9.78999996  16.21000099  55.31000137
H     7.51999950  16.57999992  55.76000214
H     5.23999977  17.43000031  55.18000031
H     6.48999977  17.63000107  51.06999969
H    14.55999947  16.61000061  51.18999863
H     3.74000025  18.12999916  53.67000198
H     4.19000006  18.98999977  52.25000000
S    15.32999992  15.64000034  55.84999847
C    17.95999908  15.32999992  55.06000137
C    16.69999886  15.57000065  54.66999817
C    16.38000107  15.86999989  53.31999969
C    17.39999962  16.13999939  52.37999725
C    18.73999977  15.78999996  52.75000000
C    19.81999969  15.72999954  51.79999924
C    21.02999878  15.17000008  52.15999985
C    21.25000000  14.85999966  53.50000000
C    20.30999947  15.03000069  54.45999908
C    19.00000000  15.43000031  54.09999847
C    14.88000011  15.93000031  53.27000046
C    14.21000004  15.86999989  54.50000000
C    12.86999893  16.00000000  54.65000153
C    22.63999939  14.40999985  53.88000107
H    23.00767136  14.88062096  54.79183197
H    18.15000153  14.78999996  55.98999786
H    17.20000076  16.35000038  51.33999634
H    19.63000107  15.98000050  50.76000214
H    21.86000061  15.03000069  51.47999573
H    20.52000046  14.85000038  55.51000214
H    12.34000015  16.11999893  55.58000183
H    23.32999992  14.67000008  53.06000137
H    22.79999924  13.31999969  53.92000198
