96

S    12.35000038  16.46999931  44.27999878
C     9.68000031  16.62999916  44.94999695
C    10.93999958  16.28000069  45.24000168
C    11.28999901  15.77000046  46.51000214
C    10.29000092  15.80000019  47.45999908
C     8.93000031  16.20000076  47.15000153
C     7.88000011  16.13999939  48.16999817
C     6.61000013  16.35000038  47.75000000
C     6.32999992  16.98999977  46.53999710
C     7.32999992  17.19000053  45.58000183
C     8.64999962  16.73999977  45.89000320
C    12.71999931  15.57000065  46.70000076
C    13.45000076  15.90999985  45.56999969
C    14.84000015  15.92000008  45.50000000
C     4.96000004  17.38999939  46.20999908
H     4.47549915  16.64569473  45.57804108
H     9.23999977  16.97000122  44.01000214
H    10.50000000  15.65999985  48.50999832
H     8.13000011  15.88000107  49.20000076
H     5.82000017  16.22999954  48.48999786
H     7.14999962  17.56000137  44.56999969
H    15.29999924  16.35000038  44.61000061
H     4.32999992  17.52000046  47.09999847
H     5.03999996  18.38000107  45.76000214
S    15.82999992  14.23999977  48.88000107
C    18.52000046  14.14000034  48.27999878
C    17.28999901  14.63999939  47.97999954
C    17.05000114  15.36999893  46.75000000
C    18.11000061  15.51000023  45.81999969
C    19.40000153  15.01000023  46.10000229
C    20.52999878  15.06999969  45.25000000
C    21.73999977  14.60999966  45.70999908
C    21.93000031  13.97999954  46.90999985
C    20.76999855  13.78999901  47.71999741
C    19.55000114  14.34999943  47.35000229
C    15.57999992  15.52999973  46.59999847
C    14.86999989  15.06999969  47.72999573
C    13.48000050  15.08999920  47.75000000
C    23.32999992  13.68000031  47.37999725
H    23.59175491  14.23888493  48.27845764
H    18.64999962  13.55000019  49.18000031
H    17.82999992  15.82999992  44.81999969
H    20.46999931  15.65999985  44.34000015
H    22.60000038  14.91000080  45.11000061
H    20.79999924  13.35000038  48.72000122
H    12.92000008  14.78000069  48.62999725
H    24.03000069  13.86999989  46.55000305
H    23.35000038  12.61000061  47.63000107
S    16.03999901  11.92999935  52.48000336
C    18.70000076  11.44999981  51.75000000
C    17.35000038  11.61999893  51.26999664
C    16.92000008  11.28000069  50.01999664
C    17.82999992  10.85999966  49.10999680
C    19.22999954  10.78999996  49.47000122
C    20.19000053  10.38000011  48.54000092
C    21.51000023  10.17000008  48.90999603
C    21.88999939  10.11000061  50.31000137
C    20.94000053  10.47999954  51.25999832
C    19.64999962  10.90999985  50.80999756
C    15.47000027  11.25000000  49.95999908
C    14.85999966  11.69999981  51.16000366
C    13.55000019  12.20999908  51.18999863
C    23.28000069   9.80000019  50.75000000
H    23.68049431  10.33169365  51.61313629
H    18.89000130  11.77000046  52.77999878
H    17.47999954  10.80000019  48.08000183
H    20.00999832  10.19000053  47.48000336
H    22.23999977  10.03999901  48.11999893
H    21.25999832  10.42000008  52.29000092
H    13.22000027  12.71000004  52.09000015
H    23.36999893   8.71999931  50.93999863
H    23.85000038  10.03000069  49.85000229
S    12.20999908  11.47999954  47.51999664
C     9.67000008  12.35000038  48.06000137
C    10.90000057  12.17000008  48.47999954
C    11.39999962  12.55000019  49.84000397
C    10.44000053  13.09000015  50.65000153
C     9.06999969  13.22999954  50.28999710
C     8.11999989  13.73999977  51.18000031
C     6.76000023  13.81000042  50.79999924
C     6.30000019  13.20000076  49.65999985
C     7.22000027  12.67000008  48.69999695
C     8.65999985  12.75000000  48.99000168
C    12.79999924  12.05000019  50.06999969
C    13.35000038  11.46999931  48.88999939
C    14.65000057  11.06999969  48.81000137
C     4.86999989  13.42000008  49.36000061
H     4.53659153  12.98511887  48.41775894
H     9.35000038  11.92000008  47.11999893
H    10.60999966  13.35999966  51.69000244
H     8.56000042  14.09000015  52.11000061
H     6.05000019  14.37999916  51.38999939
H     6.94000006  12.38999939  47.69000244
H    15.06000042  10.71000004  47.88000107
H     4.63999987  14.48999977  49.26000214
H     4.30999994  12.93000031  50.17000198
