96

S    12.31999969  16.39999962  44.36999893
C     9.61000061  16.79999924  44.98000336
C    10.85999966  16.38000107  45.38000107
C    11.10999966  15.90999985  46.66999817
C    10.11000061  15.78999996  47.54000092
C     8.78000069  16.31999969  47.22000122
C     7.65999985  16.13000107  48.06000137
C     6.35999966  16.40999985  47.69000244
C     6.11000013  16.94000053  46.43000031
C     7.14999962  17.19000053  45.63000107
C     8.51000023  16.81999969  45.93000031
C    12.58999920  15.77999973  46.91999817
C    13.38999939  15.95999908  45.73999786
C    14.75000000  15.93000031  45.79999924
C     4.65999985  17.28999901  46.11999893
H     4.27559757  16.62797356  45.34407425
H     9.39999962  16.97999954  43.93000031
H    10.21999931  15.18000031  48.43000031
H     7.82000017  15.59000015  48.99000168
H     5.60999966  16.17000008  48.43000031
H     6.86999989  17.64000130  44.68000031
H    15.26000023  16.43000031  44.99000168
H     3.97000027  17.36999893  46.97999954
H     4.67999983  18.35000038  45.81999969
S    15.59000015  15.08999920  49.56999969
C    18.36000061  14.70999908  48.97999573
C    17.07999992  15.10000038  48.53000259
C    16.88999939  15.42000008  47.18000031
C    17.90999985  15.43000031  46.27999878
C    19.25000000  15.26000023  46.72999954
C    20.34000015  15.43000031  45.86999893
C    21.63999939  14.96999931  46.20999908
C    21.84000015  14.39000034  47.43000031
C    20.76000023  14.29999924  48.34000015
C    19.43000031  14.80000019  48.04000092
C    15.43000031  15.62999916  46.93000031
C    14.63999939  15.42000008  48.11000061
C    13.27999973  15.42000008  48.08000183
C    23.15999985  13.94000053  47.81999969
H    23.49647141  14.29841518  48.79284286
H    18.57999992  14.23999977  49.93999863
H    17.77000046  15.57000065  45.20999908
H    20.25000000  15.95999908  44.92000198
H    22.43999863  15.25000000  45.52999878
H    20.96999931  13.96000004  49.34000015
H    12.81000042  15.00000000  48.95999908
H    23.90000153  14.32000065  47.09999847
H    23.26999855  12.84999943  47.84999847
S    15.72999954  12.50000000  52.23999786
C    18.40999985  11.92999935  51.50000000
C    17.02999878  11.96000004  51.17000198
C    16.55999947  11.57999992  49.89999771
C    17.46999931  11.13000011  49.00000000
C    18.79999924  11.03000069  49.31999969
C    19.75000000  10.53999996  48.36000061
C    21.12999916  10.52000046  48.66000366
C    21.63000107  10.90000057  49.93000031
C    20.71000099  11.32999992  50.89000320
C    19.30999947  11.42000008  50.59000015
C    15.10000038  11.76000023  49.78000259
C    14.55999947  12.35000038  51.00000000
C    13.22000027  12.60000038  51.18999863
C    23.12000084  10.95999908  50.24000168
H    23.32122040  11.03632450  51.30854416
H    18.72999954  12.23999977  52.50000000
H    17.13999939  10.73999977  48.02999878
H    19.47000122  10.29999924  47.34000397
H    21.90999985  10.36000061  47.91999817
H    21.11000061  11.77999973  51.79000092
H    12.84000015  12.81000042  52.18000031
H    23.65999985  10.10000038  49.82999802
H    23.39999962  11.87999916  49.71000290
S    11.56999969  11.54000092  47.69000244
C     8.97000027  12.13999939  48.68999863
C    10.36000061  12.05000019  48.90999603
C    10.95000076  12.63000011  50.06000137
C    10.13000011  13.17999935  51.04999924
C     8.64999962  13.21000004  50.84000015
C     7.69999981  13.68000031  51.77999878
C     6.40999985  13.96000004  51.40999603
C     5.88000011  13.48999977  50.12000275
C     6.80999994  12.98999977  49.20999908
C     8.14999962  12.81999969  49.54999924
C    12.35000038  12.31999969  50.10000229
C    12.84000015  11.72999954  48.88999939
C    14.26000023  11.52999973  48.67000198
C     4.40000010  13.56999969  49.72000122
H     4.22652483  13.53530502  48.64445496
H     8.53999996  11.96000004  47.70999908
H    10.53999996  13.52000046  52.00000000
H     7.92999983  14.04999924  52.77999878
H     5.69999981  14.42000008  52.09000015
H     6.38000011  12.71999931  48.25000000
H    14.60000038  10.95000076  47.81000137
H     4.13000011  14.55000019  50.13000107
H     3.75999975  12.84000015  50.22999573
