96

S    11.92999935  16.42000008  43.99000168
C     9.27999973  16.94000053  44.78000259
C    10.59999943  16.69999886  45.12000275
C    10.98000050  16.48999977  46.52000046
C    10.01000023  16.53000069  47.50999832
C     8.67999935  16.92000008  47.18000031
C     7.67000008  16.75000000  48.18000031
C     6.32999992  17.09000015  47.90999985
C     6.05999994  17.56000137  46.60999680
C     7.04999971  17.64000130  45.59000015
C     8.31999969  17.07999992  45.81999969
C    12.39999962  16.22999954  46.56000137
C    13.07000065  16.26000023  45.30000305
C    14.45000076  16.13999939  45.19000244
C     4.67999983  18.01000023  46.14999771
H     4.36818314  17.40086937  45.30157089
H     9.00000000  17.25000000  43.76999664
H    10.27999973  16.05999947  48.44999695
H     7.90000010  16.28000069  49.13000107
H     5.55999994  17.14999962  48.67000198
H     6.78999996  18.00000000  44.59000015
H    14.86999989  16.04999924  44.19000244
H     4.01999998  18.02999878  47.02000046
H     4.78999996  19.06999969  45.87999725
S    15.60999966  15.55999947  49.02999878
C    18.27000046  15.10000038  48.46000290
C    17.01000023  15.38000011  48.02999878
C    16.64999962  15.65999985  46.63999939
C    17.71000099  15.73999977  45.72999954
C    19.03000069  15.40999985  46.11999893
C    20.02000046  15.27999973  45.06999969
C    21.22999954  14.88999939  45.45000076
C    21.56999969  14.60999966  46.81000137
C    20.62999916  14.77000046  47.77999878
C    19.27999878  15.06999969  47.49000168
C    15.24000072  15.95000076  46.36000061
C    14.56999969  15.88000107  47.62000275
C    13.19000053  16.07999992  47.71999741
C    22.93999863  14.17000008  47.25999832
H    23.13414383  14.48201466  48.28618240
H    18.50000000  14.85999966  49.48999786
H    17.51000023  15.95000076  44.68000031
H    19.73999977  15.47999954  44.03999710
H    22.01000023  14.63999939  44.72999954
H    20.96999931  14.67000008  48.80000305
H    12.67000008  16.21999931  48.67000198
H    23.75999832  14.48999977  46.60999680
H    22.98000145  13.07000065  47.27000427
S    11.90000057  17.07999992  50.84000015
C     9.26000023  17.23999977  51.59000015
C    10.52999973  16.92000008  51.90000153
C    10.84000015  16.40999985  53.23999786
C     9.81999969  16.39999962  54.20000076
C     8.51000023  16.77999878  53.87000275
C     7.51999950  16.77000046  54.89999771
C     6.23000050  17.20000076  54.59000015
C     5.93999958  17.64000130  53.26000214
C     6.89000034  17.70000076  52.21000290
C     8.21000004  17.26000023  52.55000305
C    12.25999928  16.13999939  53.31999969
C    12.94000053  16.52000046  52.15999985
C    14.32000065  16.46000099  52.15999985
C     4.55999994  18.06999969  52.91999817
H     4.14493132  17.42191124  52.14811707
H     8.98999977  17.60000038  50.59999847
H     9.84000015  16.01000023  55.21999741
H     7.86000013  16.27000046  55.80999756
H     5.40999985  17.21999931  55.30000305
H     6.63999987  18.05999947  51.22000122
H    14.93999958  16.75000000  51.31999969
H     3.86000013  18.09000015  53.75999832
H     4.61000013  19.11999893  52.58999634
S    15.40999985  15.40999985  55.77000046
C    18.02999878  15.24000072  55.12000275
C    16.80999947  15.62000084  54.79000092
C    16.51000023  16.10000038  53.47000122
C    17.48999977  16.13999939  52.50000000
C    18.78000069  15.77999973  52.83000183
C    19.77000046  15.76000023  51.88000107
C    21.05999947  15.39999962  52.18000031
C    21.38000107  15.01999950  53.52000427
C    20.38000107  15.06999969  54.50000000
C    19.00000000  15.32999992  54.13000107
C    15.06000042  16.22999954  53.33000183
C    14.40000057  15.95999908  54.47999954
C    13.01000023  15.81999969  54.45999908
C    22.82999992  14.77000046  53.89999771
H    22.90025330  14.88240623  54.98190689
H    18.18000031  14.73000050  56.06999969
H    17.28000069  16.52000046  51.50000000
H    19.55000114  16.04999924  50.84999847
H    21.84999847  15.34000015  51.44000244
H    20.48999977  15.00000000  55.58000183
H    12.39999962  15.57999992  55.31999969
H    23.42000008  15.48999977  53.31999969
H    23.16999817  13.76999950  53.61999893
