96

S    12.48000050  16.29999924  44.18000031
C     9.90999985  16.93000031  44.97000122
C    11.14999962  16.50000000  45.34000015
C    11.49000072  16.09000015  46.66999817
C    10.44000053  16.00000000  47.60000229
C     9.18000031  16.40999985  47.30999756
C     8.05000019  16.22999954  48.09999847
C     6.74000025  16.62999916  47.78999710
C     6.50000000  17.05999947  46.49000168
C     7.51999950  17.17000008  45.59000015
C     8.89000034  16.86000061  45.94999695
C    12.93000031  15.80999947  46.79000092
C    13.57999992  15.95999908  45.56000137
C    14.98999977  15.98999977  45.47999954
C     5.14999962  17.56000137  46.02000427
H     4.85671568  17.06141663  45.09615326
H     9.65999985  17.14999962  43.93000031
H    10.65999985  15.67000008  48.61000061
H     8.31999969  15.75000000  49.03999710
H     5.93999958  16.54999924  48.52000427
H     7.35000038  17.64000130  44.61999893
H    15.47999954  16.11999893  44.52000046
H     4.38000011  17.42000008  46.79000092
H     5.26000023  18.63000107  45.79000092
S    16.13000107  14.91000080  49.10999680
C    18.76000023  14.59000015  48.34000015
C    17.53000069  15.08999920  48.01000214
C    17.18000031  15.59000015  46.75000000
C    18.19000053  15.54999924  45.79000092
C    19.52999878  15.07999992  46.04999924
C    20.61000061  14.89999962  45.02999878
C    21.83000183  14.40000057  45.35999680
C    22.07999992  14.04999924  46.72999954
C    21.09000015  14.01999950  47.67000198
C    19.78999901  14.52000046  47.35000229
C    15.70000076  15.67999935  46.63000107
C    15.05000019  15.34000015  47.83000183
C    13.66000080  15.42000008  47.95000076
C    23.42000008  13.69999981  47.15000153
H    23.62016106  14.20755482  48.09362411
H    18.90999985  14.04999924  49.27000046
H    17.82999992  15.65999985  44.77000427
H    20.42000008  15.26999950  44.02000046
H    22.53000069  14.34000015  44.54000092
H    21.31000137  14.00000000  48.74000168
H    13.26000023  15.11000061  48.90999603
H    24.04000092  13.94999981  46.27999878
H    23.54999924  12.63000011  47.30999756
S    16.28999901  12.38999939  52.19999695
C    18.89000130  11.73999977  51.43000031
C    17.57999992  11.82000065  51.10000229
C    17.09000015  11.39000034  49.79999924
C    18.01000023  11.10999966  48.85000229
C    19.40999985  11.03999996  49.20000076
C    20.35000038  10.52000046  48.36000061
C    21.70999908  10.42000008  48.68000031
C    22.18000031  10.84000015  49.94999695
C    21.30000114  11.46000004  50.73999786
C    19.86999893  11.46000004  50.48999786
C    15.64000034  11.59000015  49.71000290
C    15.11999989  12.18000031  50.89000320
C    13.75000000  12.46000099  51.00000000
C    23.51000023  10.38000011  50.40999985
H    23.81114960  10.71787453  51.40158844
H    19.07999992  12.00000000  52.47000122
H    17.69000053  10.67999935  47.90000153
H    20.09000015   9.98000050  47.45999908
H    22.27999878   9.75000000  48.04000092
H    21.53000069  11.76000023  51.76000214
H    13.26000023  12.64000034  51.95000076
H    23.48999977   9.27999973  50.37000275
H    24.30000114  10.72999954  49.73999786
S    12.22000027  11.43000031  47.44999695
C     9.67000008  12.13999939  48.23999786
C    11.03000069  12.10999966  48.54000092
C    11.47999954  12.60000038  49.77000427
C    10.55999947  13.02999973  50.70000076
C     9.19000053  13.04999924  50.40000153
C     8.27999973  13.48999977  51.38000107
C     6.90999985  13.50999928  51.12999725
C     6.48999977  13.05999947  49.88999939
C     7.39000034  12.63000011  48.90999603
C     8.76000023  12.58999920  49.15999985
C    12.93000031  12.35000038  49.86000061
C    13.45000076  11.77999973  48.68000031
C    14.75000000  11.46999931  48.56999969
C     5.03999996  13.19000053  49.55999756
H     4.82805967  12.93567085  48.52149200
H     9.39000034  11.67000008  47.29999924
H    10.93999958  13.38000107  51.65999985
H     8.65999985  14.14000034  52.15999985
H     6.24000025  13.89000034  51.88999939
H     6.96000004  12.43999958  47.93000031
H    15.17000008  11.10000038  47.63999939
H     4.72000027  14.19999981  49.85000229
H     4.53999996  12.51999950  50.27999878
