96

S    12.50000000  16.72999954  44.59000015
C     9.86999989  16.81999969  45.12000275
C    11.09000015  16.35000038  45.52999878
C    11.43000031  15.81999969  46.79000092
C    10.47000027  15.65999985  47.74000168
C     9.13000011  16.10999870  47.38999939
C     8.01000023  16.11999893  48.27999878
C     6.76999998  16.54000092  47.93000031
C     6.54999971  17.02000046  46.63000107
C     7.55999994  17.19000053  45.72999954
C     8.89999962  16.75000000  46.10000229
C    12.88000011  15.72999954  47.02000046
C    13.57999992  16.14999962  45.86000061
C    14.98999977  16.17000008  45.77000046
C     5.13000011  17.38000107  46.30000305
H     4.78061724  16.82384109  45.43010712
H     9.63000011  17.23999977  44.15000153
H    10.70000076  15.18000031  48.68000031
H     8.05999947  15.62999916  49.25000000
H     5.95000029  16.23999977  48.55999756
H     7.30000019  17.61999893  44.77000427
H    15.57000065  16.54999924  44.93000031
H     4.61000013  16.90999985  47.15000153
H     5.00000000  18.46999931  46.23000336
S    16.10000038  15.01000023  49.34999847
C    18.73999977  14.52999973  48.54999924
C    17.45000076  14.93999958  48.22000122
C    17.07999992  15.40999985  46.95000076
C    18.04999924  15.47999954  46.00000000
C    19.38999939  15.08999920  46.26999664
C    20.43000031  15.10000038  45.27000046
C    21.68999863  14.72000027  45.59999847
C    21.98999786  14.21000004  46.86999893
C    21.07000160  14.22000027  47.84999847
C    19.73999977  14.68000031  47.62000275
C    15.65000057  15.80999947  46.90000153
C    14.98999977  15.50000000  48.08000183
C    13.61999989  15.34000015  48.13999939
C    23.38000107  13.71000099  47.28000259
H    23.73219681  14.37037182  48.07244873
H    18.86000061  14.01999950  49.50000000
H    17.81999969  15.90000057  45.01999664
H    20.25000000  15.29000092  44.20999908
H    22.44999886  14.72000027  44.81999969
H    21.21000099  13.75000000  48.81999969
H    13.12999916  15.08999920  49.06999969
H    23.87000084  13.78000069  46.30000305
H    23.18000031  12.64999962  47.50999832
S    12.13999939  16.60000038  50.84999847
C     9.44999981  16.82999992  51.66999817
C    10.72000027  16.40999985  51.93999863
C    11.10999966  15.97000027  53.22000122
C    10.10000038  15.80000019  54.15000153
C     8.73000050  16.22999954  53.96999741
C     7.67000008  16.13000107  54.87999725
C     6.39999962  16.53000069  54.51000214
C     6.19999981  17.05999947  53.18999863
C     7.21000004  17.19000053  52.35000229
C     8.46000004  16.72999954  52.68000031
C    12.53999901  15.81999969  53.37999725
C    13.26000023  16.07999992  52.16999817
C    14.68000031  15.97000027  52.14000320
C     4.81999969  17.53000069  52.81000137
H     4.38339090  16.94550705  52.00016022
H     9.21000004  17.29999924  50.72000122
H    10.34999943  15.22999954  55.04000092
H     7.79999971  15.57999992  55.80999756
H     5.56999969  16.27000046  55.14999771
H     7.03999996  17.69000053  51.39999771
H    15.21999931  16.27000046  51.25000000
H     4.19000006  17.36999893  53.69999695
H     4.69999981  18.60999870  52.67000198
S    15.73999977  14.98999977  55.84000015
C    18.37000084  14.44000053  54.99000168
C    17.10000038  14.89999962  54.68000031
C    16.75000000  15.43000031  53.37999725
C    17.75000000  15.71000004  52.45999908
C    19.10000038  15.32999992  52.74000168
C    20.10000038  15.47000027  51.79999924
C    21.37000084  15.26999950  52.11999893
C    21.75000000  14.59000015  53.31999969
C    20.78000069  14.27999973  54.27999878
C    19.43000031  14.67000008  54.03999710
C    15.34000015  15.54999924  53.27999878
C    14.65999985  15.39999962  54.51000214
C    13.22000027  15.47000027  54.54000092
C    23.19999886  14.30999947  53.67000198
H    23.38143539  14.58215523  54.70976639
H    18.68000031  13.86999989  55.86000061
H    17.59000015  16.22999954  51.52999878
H    19.85999870  15.72999954  50.77999878
H    22.13999939  15.44000053  51.37000275
H    21.01000023  13.73000050  55.19000244
H    12.69999981  15.06999969  55.40000153
H    23.81000137  14.86999989  52.94000244
H    23.44000053  13.25000000  53.55999756
