96

S    12.10000038  16.38000107  43.99000168
C     9.38000011  16.54999924  44.79999924
C    10.69000053  16.18999863  45.01999664
C    11.05000019  15.65999985  46.30000305
C    10.05000019  15.46000004  47.28000259
C     8.71999931  15.84000015  47.01000214
C     7.69000006  15.84000015  48.00000000
C     6.34999990  16.20000076  47.71999741
C     6.00000000  16.72000122  46.37000275
C     7.04999971  16.93000031  45.45999908
C     8.36000061  16.36000061  45.70999908
C    12.50000000  15.48999977  46.44000244
C    13.22000027  15.88000107  45.34000015
C    14.60999966  15.92000008  45.34999847
C     4.57999992  17.15999985  46.06999969
H     4.20610046  16.65667534  45.17839432
H     9.11000061  17.05999947  43.87000275
H    10.25000000  15.14999962  48.30999756
H     8.03999996  15.62000084  49.01000214
H     5.65000010  16.26000023  48.54000092
H     6.89000034  17.29999924  44.43999863
H    15.15999985  16.11999893  44.43000031
H     3.96000004  17.02000046  46.97000122
H     4.51000023  18.23999977  45.84999847
S    15.57000065  14.80999947  49.02000046
C    18.30999947  14.60000038  48.34000015
C    16.97000122  14.88000011  48.01000214
C    16.68000031  15.29000092  46.68000031
C    17.65999985  15.39000034  45.68000031
C    18.96999931  15.08999920  46.00000000
C    20.13000107  15.22999954  45.11000061
C    21.38000107  14.73999977  45.51000214
C    21.61999893  14.19000053  46.79000092
C    20.56999969  14.15999985  47.70999908
C    19.34000015  14.63999939  47.34000397
C    15.29000092  15.62999916  46.53999710
C    14.48999977  15.26999950  47.69000244
C    13.15000057  15.15999985  47.63000107
C    23.02999878  13.89000034  47.11999893
H    23.26055336  14.19740486  48.14002228
H    18.53999901  14.34000015  49.38000107
H    17.40999985  15.71000004  44.68000031
H    20.00000000  15.52000046  44.06999969
H    22.22999954  14.93999958  44.86000061
H    20.59000015  13.78999901  48.73000336
H    12.56000042  15.01000023  48.52000427
H    23.54000092  14.60999966  46.46999741
H    23.35000038  12.84999943  46.95999908
S    16.04999924  12.30000019  52.29999924
C    18.71999931  11.92999935  51.53999710
C    17.36999893  11.84999943  51.22000122
C    16.92000008  11.51000023  49.88999939
C    17.81999969  11.00999928  49.02000046
C    19.27000046  11.11999989  49.27000046
C    20.22999954  10.62000084  48.34999847
C    21.50000000  10.29999924  48.79000092
C    21.91999817  10.65000057  50.06999969
C    21.05999947  11.43000031  50.86000061
C    19.69000053  11.56999969  50.56999969
C    15.46000004  11.54999924  49.79999924
C    14.91000080  12.07999992  50.98999786
C    13.60000038  12.53999901  51.04000092
C    23.31999969  10.40999985  50.61000061
H    23.60188293  10.90329552  51.54021454
H    19.01000023  12.13999939  52.56000137
H    17.51000023  10.38000011  48.18999863
H    19.85000038  10.29000092  47.38999939
H    22.20000076   9.82999992  48.09999847
H    21.35999870  11.80999947  51.83000183
H    13.19000053  12.97999954  51.95000076
H    23.51000023   9.34000015  50.73999786
H    23.97999954  10.60999966  49.75000000
S    11.97000027  11.54000092  47.45999908
C     9.44999981  12.30000019  48.34999847
C    10.80000019  12.27000046  48.54000092
C    11.36999989  12.67000008  49.80999756
C    10.48999977  12.97999954  50.84000015
C     9.09000015  12.97999954  50.70000076
C     8.15999985  13.30999947  51.72000122
C     6.83000040  13.50000000  51.35000229
C     6.25999975  13.21000004  50.06000137
C     7.14999962  12.72999954  49.09999847
C     8.52999973  12.68000031  49.40999985
C    12.76000023  12.36999989  49.91000366
C    13.26000023  11.72000027  48.75999832
C    14.59000015  11.30000019  48.69999695
C     4.84000015  13.53999996  49.62999725
H     4.48708105  12.93796253  48.79268265
H     9.03999996  12.02000046  47.37999725
H    10.98000050  13.17000008  51.79000092
H     8.60000038  13.52000046  52.70000076
H     6.25999975  14.06999969  52.06999969
H     6.75000000  12.50000000  48.11999893
H    15.01000023  10.90000057  47.77999878
H     4.78999996  14.63000107  49.51000214
H     4.19000006  13.19000053  50.44000244
