96

S    12.20999908  16.39000130  44.33000183
C     9.52999973  16.75000000  45.06999969
C    10.80999947  16.35000038  45.34999847
C    11.16000080  16.03999901  46.70000076
C    10.19999981  15.90999985  47.64999771
C     8.84000015  16.36000061  47.41000366
C     7.79999971  16.23999977  48.37999725
C     6.51000023  16.61999893  47.97999954
C     6.19999981  17.05000114  46.56999969
C     7.17000008  17.18000031  45.70000076
C     8.52999973  16.79999924  46.05999756
C    12.56999969  15.80999947  46.84000015
C    13.26000023  15.98000050  45.61999893
C    14.65000057  15.97000027  45.59000015
C     4.79999971  17.39999962  46.24000168
H     4.52260637  16.85981178  45.33481979
H     9.36999989  17.20999908  44.09999847
H    10.51000023  15.59000015  48.63999939
H     7.90999985  15.81999969  49.38000107
H     5.78000021  16.57999992  48.77999878
H     7.02000046  17.43999863  44.65000153
H    15.10000038  16.00000000  44.59999847
H     4.09999990  17.20000076  47.05999756
H     4.63999987  18.47999954  46.10000229
S    15.78999996  14.94999981  49.25000000
C    18.46999931  14.94999981  48.69999695
C    17.15999985  15.26999950  48.27999878
C    16.84999847  15.57999992  46.93999863
C    17.81999969  15.54999924  45.90999985
C    19.11999893  15.22999954  46.30000305
C    20.13000107  15.13000011  45.38999939
C    21.40000153  14.73000050  45.77999878
C    21.71999931  14.40000057  47.06999969
C    20.81000137  14.55999947  48.04999924
C    19.47000122  14.96999931  47.70999908
C    15.39000034  15.69000053  46.70999908
C    14.68000031  15.31999969  47.88999939
C    13.27999973  15.39999962  47.98999786
C    23.12999916  13.93000031  47.30999756
H    23.59289360  14.43562126  48.15745163
H    18.60000038  14.52999973  49.69999695
H    17.64000130  15.65000057  44.84000397
H    19.88000107  15.40999985  44.36999893
H    22.07999992  14.37999916  45.01999664
H    20.89999962  14.34000015  49.10999680
H    12.82999992  15.03999901  48.90999603
H    23.78000069  13.94000053  46.43000031
H    23.05999947  12.86999893  47.58999634
S    11.84999943  16.28999901  50.87999725
C     9.31999969  17.02000046  51.68000031
C    10.54999924  16.43000031  51.97999954
C    10.92000008  16.13000107  53.29000092
C     9.98999977  16.04999924  54.26000214
C     8.64000034  16.25000000  53.99000168
C     7.57999992  16.07999992  54.92000198
C     6.32999992  16.46999931  54.61999893
C     6.00000000  16.98999977  53.29999924
C     6.98999977  17.20999908  52.38999939
C     8.28999996  16.81999969  52.70000076
C    12.35999966  16.00000000  53.41999817
C    13.04999924  16.18999863  52.19999695
C    14.46000004  16.26000023  52.11000061
C     4.57999992  17.47999954  52.97999954
H     4.21289444  17.14226341  52.01084137
H     9.19999981  17.54999924  50.73999786
H    10.18000031  15.80000019  55.30000305
H     7.81000042  15.59999943  55.86999893
H     5.47999954  16.46999931  55.28999710
H     6.75000000  17.63000107  51.40999603
H    14.81999969  16.53000069  51.11999893
H     3.97000027  17.06999969  53.79000092
H     4.48999977  18.57999992  53.01000214
S    15.67000008  15.31000042  55.72000122
C    18.30999947  14.88000011  54.93999863
C    17.06999969  15.42000008  54.66999817
C    16.69000053  15.93000031  53.36999893
C    17.60000038  15.97000027  52.41000366
C    18.98999977  15.62000084  52.74000168
C    20.06999969  15.69000053  51.84000015
C    21.28999901  15.13000011  51.98999786
C    21.60000038  14.48999977  53.23999786
C    20.62000084  14.37999916  54.20000076
C    19.29000092  14.98999977  54.00000000
C    15.26000023  16.09000015  53.25000000
C    14.57999992  15.84000015  54.45999908
C    13.19000053  15.84000015  54.54999924
C    22.98000145  14.06000042  53.62999725
H    23.29607010  14.60083199  54.52201843
H    18.44000053  14.26000023  55.83000183
H    17.26000023  16.06999969  51.38999939
H    19.82999992  16.20000076  50.90999985
H    22.03000069  15.26000023  51.19999695
H    20.89999962  14.01999950  55.19000244
H    12.72999954  15.59000015  55.51000214
H    23.69999886  14.06000042  52.81000137
H    23.00000000  13.01000023  53.97999573
