96

S    12.35999966  16.38000107  44.31999969
C     9.72999954  16.72999954  45.00000000
C    10.92000008  16.26000023  45.38999939
C    11.26999950  16.00000000  46.73999786
C    10.25000000  16.03000069  47.68000031
C     8.97000027  16.35000038  47.34000397
C     7.92000008  16.35000038  48.27999878
C     6.69000053  16.62999916  47.93000031
C     6.38999987  17.05000114  46.58000183
C     7.37999964  17.34000015  45.68999863
C     8.67000008  16.77999878  45.97000122
C    12.69000053  15.93999958  46.93999863
C    13.40000057  16.13999939  45.73999786
C    14.78000069  16.15999985  45.70000076
C     4.94000006  17.36999893  46.25999832
H     4.60018730  16.88151932  45.34675217
H     9.55000019  17.02999878  43.96999741
H    10.38000011  15.72999954  48.72000122
H     8.23000050  16.11999893  49.29000092
H     5.93999958  16.62999916  48.70999908
H     7.26999998  17.64000130  44.65999985
H    15.31000042  16.35000038  44.78000259
H     4.39000034  17.10000038  47.16999817
H     4.86000013  18.45000076  46.13999939
S    16.00000000  15.19000053  49.33000183
C    18.60999870  14.77000046  48.34999847
C    17.38999939  15.34000015  48.18999863
C    16.95999908  15.73999977  46.90999985
C    17.84000015  15.80999947  45.84999847
C    19.19000053  15.42000008  46.05999756
C    20.25000000  15.55999947  45.08999634
C    21.54999924  15.17000008  45.40999985
C    21.90999985  14.70000076  46.70999908
C    20.92000008  14.60000038  47.56999969
C    19.56999969  14.93999958  47.36000061
C    15.50000000  15.92000008  46.81999969
C    14.89999962  15.62000084  48.09000015
C    13.48000050  15.67999935  48.13999939
C    23.32999992  14.45000076  47.09000015
H    23.63478088  14.94615555  48.01143265
H    18.86000061  14.21000004  49.25000000
H    17.45000076  16.14999962  44.89999771
H    19.97999954  16.06999969  44.16999817
H    22.26000023  15.44999981  44.64000320
H    21.12999916  14.17000008  48.54000092
H    13.02000046  15.59000015  49.12000275
H    23.95000076  14.78000069  46.25000000
H    23.48999977  13.36999989  47.11000061
S    11.78999996  17.05000114  51.04999924
C     9.17000008  17.43999863  51.75000000
C    10.36000061  16.93000031  52.04999924
C    10.62000084  16.23999977  53.26000214
C     9.61999989  16.03000069  54.16999817
C     8.32999992  16.57999992  53.95000076
C     7.26000023  16.42000008  54.86999893
C     6.00000000  16.94000053  54.51000214
C     5.73999977  17.45000076  53.23999786
C     6.78999996  17.68000031  52.41000366
C     8.11999989  17.27000046  52.70000076
C    12.02000046  15.95999908  53.41999817
C    12.76000023  16.46000099  52.29000092
C    14.13000011  16.32999992  52.25000000
C     4.30000019  17.81999969  52.87000275
H     3.97385955  17.32732010  51.95403290
H     9.09000015  17.93000031  50.77999878
H     9.89000034  15.54999924  55.11000061
H     7.31999969  15.72999954  55.70000076
H     5.10999966  16.98999977  55.13000107
H     6.61999989  18.27999878  51.52000046
H    14.57999992  16.84999847  51.40999603
H     3.51000023  17.59000015  53.59000397
H     4.33999968  18.89999962  52.68000031
S    15.01999950  14.94999981  55.80999756
C    17.76000023  14.86999989  55.24000168
C    16.50000000  15.29000092  54.93000031
C    16.26000023  15.75000000  53.61999893
C    17.29999924  15.85999966  52.77999878
C    18.61999893  15.52000046  53.06999969
C    19.63999939  15.72000027  52.11000061
C    20.90999985  15.31999969  52.43000031
C    21.19999886  14.70000076  53.68000031
C    20.17999840  14.52000046  54.64000320
C    18.86000061  15.01000023  54.40000153
C    14.85999966  15.80000019  53.36999893
C    14.09000015  15.48999977  54.48999786
C    12.69999981  15.47000027  54.50000000
C    22.65000153  14.45000076  54.09000015
H    22.85033417  15.08810139  54.95069504
H    17.81999969  14.26000023  56.13999939
H    17.02999878  16.23999977  51.79999924
H    19.47999954  16.15999985  51.12999725
H    21.78999901  15.40999985  51.81000137
H    20.40999985  14.09999943  55.61000061
H    12.28000069  15.26000023  55.47999954
H    23.28000069  14.63000107  53.20999908
H    22.78000069  13.42000008  54.43999863
