96

S    12.48999977  16.32999992  44.31999969
C     9.88000011  16.77999878  44.98000336
C    11.10000038  16.28999901  45.33000183
C    11.40999985  15.77999973  46.68000031
C    10.39000034  15.76000023  47.57999802
C     9.15000057  16.31000137  47.28000259
C     8.07999992  16.23999977  48.20000076
C     6.78999996  16.54000092  47.80000305
C     6.56000042  17.20999908  46.58000183
C     7.55999994  17.18000031  45.63999939
C     8.85000038  16.79000092  45.97999954
C    12.88000011  15.67000008  46.84000015
C    13.53000069  15.88999939  45.61999893
C    14.89999962  15.92000008  45.56000137
C     5.15999985  17.70000076  46.29000092
H     4.70699406  17.22575951  45.41938019
H     9.64999962  17.00000000  43.93000031
H    10.40999985  15.24000072  48.54000092
H     8.32999992  15.70000076  49.10999680
H     5.97000027  16.05999947  48.33000183
H     7.42999983  17.59000015  44.64000320
H    15.39999962  15.92000008  44.59000015
H     4.55999994  17.43000031  47.16999817
H     5.03999996  18.78000069  46.17000198
S    16.03000069  14.92000008  49.22000122
C    18.73999977  14.55000019  48.40000153
C    17.43999863  15.01999950  48.11999893
C    17.11000061  15.57000065  46.84999847
C    18.05999947  15.70000076  45.87999725
C    19.36000061  15.34000015  46.12999725
C    20.36999893  15.38000011  45.13000107
C    21.63000107  14.85999966  45.30000305
C    21.98999786  14.35999966  46.56000137
C    21.07000160  14.26000023  47.55000305
C    19.71999931  14.75999928  47.38999939
C    15.64000034  15.72999954  46.72999954
C    14.94999981  15.43000031  47.91999817
C    13.55999947  15.38000011  48.00000000
C    23.36999893  13.86999989  46.84999847
H    23.73210335  14.27992821  47.79283524
H    19.02000046  13.94000053  49.25000000
H    17.77000046  15.93000031  44.85000229
H    20.02000046  15.72000027  44.15999985
H    22.25000000  14.72000027  44.41999817
H    21.38000107  13.76000023  48.46000290
H    13.07000065  15.06999969  48.92000198
H    23.97999954  14.11999893  45.97000122
H    23.29999924  12.77999973  46.84000015
S    11.92999935  16.70999908  50.90000153
C     9.34000015  16.97999954  51.70000076
C    10.57999992  16.50000000  52.00000000
C    10.98999977  15.98999977  53.20999908
C    10.01999950  15.98999977  54.20000076
C     8.69999981  16.46999931  53.96999741
C     7.65999985  16.50000000  54.93999863
C     6.37000036  16.79999924  54.59999847
C     6.07999992  17.18000031  53.25000000
C     7.02000046  17.19000053  52.34000397
C     8.36000061  16.90999985  52.67000198
C    12.44999981  15.92000008  53.30999756
C    13.10999966  16.22999954  52.11000061
C    14.50000000  16.13999939  51.95000076
C     4.67999983  17.59000015  52.88000107
H     4.24962378  17.01385117  52.06089783
H     9.09000015  17.28999901  50.68999863
H    10.21999931  15.67000008  55.21999741
H     7.65999985  16.17000008  55.97000122
H     5.59999990  16.70999908  55.34999847
H     6.71999979  17.61000061  51.38999939
H    14.96000099  16.21000099  50.97000122
H     4.00999975  17.57999992  53.74000168
H     4.65999985  18.65999985  52.64999771
S    15.52000046  15.36000061  55.81999969
C    18.22999954  14.94999981  55.27999878
C    17.01000023  15.38000011  54.79000092
C    16.69999886  15.67999935  53.46000290
C    17.71000099  15.64000034  52.57999802
C    19.03000069  15.29000092  53.01000214
C    20.06999969  15.29000092  52.04999924
C    21.40000153  15.05000019  52.43000031
C    21.70999908  14.84000015  53.80000305
C    20.68000031  14.85999966  54.72000122
C    19.30999947  15.05000019  54.34999847
C    15.26999950  15.86999989  53.11999893
C    14.57999992  15.73999977  54.38999939
C    13.22000027  15.67999935  54.43999863
C    23.09000015  14.59000015  54.23999786
H    23.16752815  14.84373188  55.29721451
H    18.44000053  14.63999939  56.30000305
H    17.53999901  15.80999947  51.52000046
H    19.78999901  15.46000004  51.02000427
H    22.23999977  15.07999992  51.75000000
H    20.96999931  14.48999977  55.70000076
H    12.69999981  15.34999943  55.33000183
H    23.87000084  15.11000061  53.67000198
H    23.02000046  13.50000000  54.13999939
