96

S    12.25000000  17.02999878  44.38999939
C     9.63999939  16.97999954  45.10000229
C    10.93999958  16.69999886  45.44000244
C    11.30000019  16.18000031  46.70999908
C    10.31000042  15.92000008  47.64999771
C     9.00000000  16.28999901  47.36000061
C     7.97999954  16.09000015  48.36000061
C     6.74000025  16.54999924  48.11999893
C     6.32999992  17.13000107  46.88999939
C     7.26999998  17.25000000  45.86000061
C     8.60000038  16.79999924  46.09000397
C    12.71000004  16.02000046  46.86999893
C    13.42000008  16.50000000  45.68000031
C    14.77000046  16.53000069  45.63000107
C     4.92999983  17.56999969  46.69000244
H     4.61058521  17.16031647  45.73175812
H     9.42000008  17.36999893  44.10999680
H    10.57000065  15.60999966  48.66000366
H     8.22000027  15.50000000  49.23999786
H     5.97000027  16.53000069  48.88000107
H     7.04999971  17.64999962  44.86999893
H    15.26999950  16.61000061  44.66999817
H     4.25000000  17.23999977  47.48000336
H     5.07000017  18.65999985  46.70000076
S    15.98999977  15.47999954  49.23999786
C    18.63999939  14.96000099  48.52000427
C    17.38999939  15.43000031  48.18999863
C    16.95000076  15.82999992  46.83000183
C    17.94000053  15.78999996  45.86999893
C    19.27999878  15.36999893  46.13999939
C    20.31999969  15.31000042  45.20000076
C    21.55999947  14.85000038  45.51000214
C    21.94999886  14.55999947  46.84999847
C    21.01000023  14.63000107  47.87000275
C    19.69000053  14.98999977  47.51999664
C    15.50000000  16.15999985  46.75000000
C    14.85000038  15.76000023  47.93000031
C    13.48999977  15.59999943  47.94000244
C    23.32999992  14.11999893  47.11999893
H    23.71760559  14.46532059  48.07844162
H    18.82999992  14.45000076  49.47000122
H    17.63000107  16.10999870  44.88999939
H    20.06000137  15.62000084  44.19000244
H    22.36000061  14.72000027  44.79000092
H    21.25999832  14.35999966  48.89999771
H    13.01000023  15.17000008  48.81000137
H    24.00000000  14.52000046  46.35000229
H    23.45000076  13.02999973  47.15000153
S    12.17000008  16.67000008  50.89000320
C     9.46000004  16.90000153  51.38999939
C    10.70000076  16.50000000  51.84000015
C    11.02000046  16.13000107  53.18000031
C     9.94999981  16.03000069  54.06999969
C     8.64000034  16.39999962  53.72000122
C     7.55999994  16.32999992  54.64000320
C     6.30000019  16.68000031  54.19000244
C     6.10000038  17.23999977  52.91999817
C     7.13000011  17.35999870  52.04000092
C     8.40999985  16.90000153  52.36000061
C    12.48999977  16.21999931  53.40999985
C    13.21000004  16.36999893  52.22999954
C    14.60999966  16.39999962  52.21000290
C     4.69999981  17.72999954  52.47000122
H     4.22110987  17.17585564  51.66272736
H     9.32999992  17.39999962  50.43000031
H    10.18000031  16.03000069  55.13000107
H     7.73000002  16.14999962  55.68999863
H     5.47999954  16.65999985  54.89999771
H     6.93000031  17.75000000  51.04000092
H    15.14000034  16.69999886  51.31000137
H     4.00999975  17.69000053  53.30999756
H     4.67000008  18.79999924  52.22000122
S    15.40999985  15.48999977  55.97000122
C    18.15000153  14.91000080  55.40999985
C    16.94000053  15.40999985  54.99000168
C    16.68000031  15.88999939  53.63999939
C    17.69000053  15.93000031  52.69000244
C    18.93000031  15.36000061  53.04000092
C    20.05000114  15.32999992  52.06999969
C    21.28999901  14.85999966  52.43000031
C    21.51000023  14.42999935  53.77999878
C    20.46999931  14.37000084  54.72000122
C    19.17000008  14.93000031  54.40999985
C    15.25000000  16.05999947  53.41999817
C    14.47000027  15.85000038  54.58000183
C    13.10999966  15.88999939  54.59000015
C    22.96999931  14.15999985  54.23999786
H    23.19590569  14.55351257  55.23106384
H    18.26000023  14.34000015  56.32999802
H    17.45000076  16.14999962  51.65000153
H    19.90999985  15.76000023  51.07999802
H    22.11000061  15.03999901  51.73999786
H    20.68000031  14.11999893  55.75000000
H    12.53000069  15.62999916  55.47000122
H    23.75000000  14.40999985  53.50999832
H    22.93999863  13.07000065  54.23999786
