96

S    12.55000019  16.95000076  44.43999863
C     9.80000019  16.88999939  45.17000198
C    11.10999966  16.73999977  45.52000046
C    11.50000000  16.39999962  46.83000183
C    10.54999924  16.31000137  47.80000305
C     9.15999985  16.54999924  47.49000168
C     8.14000034  16.59000015  48.50999832
C     6.83000040  16.77999878  48.22000122
C     6.47000027  16.95999908  46.81000137
C     7.40999985  17.04000092  45.79999924
C     8.76999950  16.77999878  46.13999939
C    12.93000031  16.36999893  47.02999878
C    13.60000038  16.61999893  45.86000061
C    15.00000000  16.67000008  45.90999985
C     5.09000015  17.22999954  46.45999908
H     4.64577818  16.72846031  45.60021591
H     9.47000027  17.12000084  44.15999985
H    10.81999969  16.14999962  48.83999634
H     8.36999989  16.48999977  49.56999969
H     6.11000013  16.95999908  49.01000214
H     7.20000029  17.29999924  44.75999832
H    15.48999977  16.72000122  44.93999863
H     4.41000032  17.15999985  47.30999756
H     4.99000025  18.30000114  46.22000122
S    16.00000000  15.38000011  49.45000076
C    18.70000076  15.14999962  48.73000336
C    17.42000008  15.50000000  48.37999725
C    17.15999985  16.02000046  47.11999893
C    18.15000153  16.04999924  46.11000061
C    19.40999985  15.57999992  46.42000198
C    20.48000145  15.51000023  45.47999954
C    21.68999863  15.03999901  45.75000000
C    21.94999886  14.40999985  47.01000214
C    20.97999954  14.45000076  47.97000122
C    19.75000000  15.03000069  47.71999741
C    15.70000076  16.27000046  46.97000122
C    14.98000050  15.98000050  48.15000153
C    13.63000011  16.06999969  48.18999863
C    23.32999992  13.94999981  47.43000031
H    23.73874474  14.49012661  48.28398514
H    18.86000061  14.56999969  49.64000320
H    17.95999908  16.52000046  45.14999771
H    20.28000069  15.88000107  44.47999954
H    22.53000069  15.21999931  45.07999802
H    21.28999901  14.18000031  48.96999741
H    13.12000084  15.80000019  49.12000275
H    23.98999977  13.94000053  46.55000305
H    23.34000015  12.89000034  47.70000076
S    16.02000046  12.89000034  52.37999725
C    18.70000076  12.15000057  51.65999985
C    17.28999901  12.18000031  51.36000061
C    16.87000084  11.80999947  50.12000275
C    17.78000069  11.47999954  49.15000153
C    19.19000053  11.44000053  49.40999985
C    20.15999985  11.13000011  48.44999695
C    21.45000076  11.07999992  48.81999969
C    21.91999817  11.44000053  50.06999969
C    21.00000000  11.84000015  50.98999786
C    19.61000061  11.85999966  50.68999863
C    15.51000023  12.17000008  49.85000229
C    14.89999962  12.84000015  51.02000427
C    13.55000019  13.34000015  51.11999893
C    23.38000107  11.17000008  50.38999939
H    23.60013580  11.24101162  51.45517349
H    19.12999916  12.60000038  52.55000305
H    17.38000107  11.06999969  48.22999954
H    19.79999924  10.80999947  47.48000336
H    22.23999977  10.77000046  48.13999939
H    21.30000114  11.97000027  52.02999878
H    13.07000065  13.71999931  52.02000046
H    23.51000023  10.14999962  49.99000168
H    24.04999924  11.64999962  49.66999817
S    12.23000050  12.25999928  47.55000305
C     9.51000023  12.64999962  48.36999893
C    10.86999989  12.75000000  48.54999924
C    11.33999920  13.20000076  49.87999725
C    10.50000000  13.63999939  50.84000015
C     9.10000038  13.57999992  50.61000061
C     8.11999989  14.01999950  51.50000000
C     6.81999969  13.99000072  51.23000336
C     6.30000019  13.40999985  50.07999802
C     7.17000008  13.00000000  49.13000107
C     8.56999969  13.04999924  49.31000137
C    12.76999950  13.07000065  49.95999908
C    13.40000057  12.53999901  48.77999878
C    14.75000000  12.09000015  48.64999771
C     4.76000023  13.38000107  49.75000000
H     4.48421097  12.91115952  48.80541992
H     9.17000008  12.35000038  47.37999725
H    10.76000023  13.85000038  51.86999893
H     8.36999989  14.55999947  52.41000366
H     6.15000010  14.65000057  51.77999878
H     6.77999973  12.71999931  48.15999985
H    15.13000011  11.57999992  47.77000046
H     4.39000034  14.42000008  49.79000092
H     4.19000006  12.89000034  50.54999924
