96

S    12.09000015  16.36000061  43.96999741
C     9.38000011  16.77000046  44.65999985
C    10.65999985  16.28999901  44.98000336
C    11.03999996  15.97000027  46.35000229
C    10.03000069  15.85999966  47.27000427
C     8.76999950  16.34000015  46.95999908
C     7.77999973  16.31000137  47.94000244
C     6.51000023  16.80999947  47.77999878
C     6.15999985  17.25000000  46.52000046
C     7.07999992  17.27000046  45.44000244
C     8.42000008  16.80999947  45.66999817
C    12.48000050  15.77000046  46.59999847
C    13.20000076  16.09000015  45.44000244
C    14.55000019  16.06999969  45.28999710
C     4.74000025  17.79000092  46.31999969
H     4.29527092  17.26883507  45.47223663
H     9.19999981  17.28000069  43.70999908
H    10.25000000  15.31000042  48.18000031
H     8.02999973  16.14999962  48.99000168
H     5.95000029  17.09000015  48.67000198
H     6.90000010  17.87999916  44.55999756
H    15.00000000  16.05999947  44.29999924
H     4.07999992  17.64000130  47.18999863
H     4.82999992  18.88000107  46.18999863
S    15.77000046  15.21999931  48.96999741
C    18.30999947  14.77000046  48.22000122
C    17.07999992  15.11999989  47.83000183
C    16.72000122  15.44000053  46.50000000
C    17.81999969  15.52000046  45.59999847
C    19.13999939  15.14000034  45.96000290
C    20.17999840  15.26999950  45.06000137
C    21.42999840  14.84000015  45.44000244
C    21.61999893  14.13000011  46.66999817
C    20.59000015  14.06000042  47.55000305
C    19.37000084  14.68999958  47.29999924
C    15.27999973  15.76000023  46.44000244
C    14.61999989  15.48999977  47.68000031
C    13.17999935  15.53999996  47.77000046
C    22.95000076  13.63000011  47.11000061
H    23.38156319  14.22813129  47.91255569
H    18.42000008  14.35999966  49.22000122
H    17.60000038  15.88000107  44.59999847
H    19.86999893  15.80000019  44.15999985
H    22.27000046  14.96000099  44.77000427
H    20.71000099  13.63999939  48.54999924
H    12.67000008  15.22999954  48.68000031
H    23.69999886  13.55000019  46.31000137
H    22.63000107  12.65999985  47.50999832
S    11.96000004  16.47999954  50.90000153
C     9.22999954  17.14999962  51.45999908
C    10.52000046  16.73999977  51.84999847
C    10.85999966  16.53000069  53.27000046
C     9.85000038  16.38000107  54.16999817
C     8.52999973  16.77000046  53.81999969
C     7.48000050  16.70999908  54.77000427
C     6.23000050  17.09000015  54.43999863
C     5.89999962  17.54999924  53.15999985
C     6.90000010  17.63000107  52.22000122
C     8.21000004  17.22999954  52.50000000
C    12.27000046  16.46999931  53.53000259
C    12.98999977  16.43000031  52.29999924
C    14.39000034  16.17000008  52.22999954
C     4.44000006  17.90999985  52.87000275
H     4.12839365  17.40450668  51.95595932
H     9.03999996  17.53000069  50.45999908
H    10.07999992  16.23999977  55.22999573
H     7.59999990  16.51000023  55.83000183
H     5.44000053  17.02000046  55.19000244
H     6.63000011  18.09999847  51.26999664
H    14.84000015  16.10000038  51.24000168
H     3.88000011  17.48999977  53.72000122
H     4.25000000  18.97999954  52.77000046
S    15.48999977  15.40999985  55.93000031
C    18.05999947  14.60999966  55.12000275
C    16.79000092  15.14000034  54.77000427
C    16.50000000  15.55999947  53.48999786
C    17.46999931  15.65000057  52.55000305
C    18.71000099  15.19000053  52.85999680
C    19.77000046  15.26999950  51.86999893
C    21.07000160  14.78999996  52.09000015
C    21.30000114  14.30999947  53.39000320
C    20.42000008  14.28999996  54.48999786
C    19.06999969  14.68999958  54.18000031
C    15.06000042  15.85000038  53.40000153
C    14.37999916  15.98999977  54.61999893
C    13.02000046  16.27000046  54.72000122
C    22.76000023  14.04999924  53.69999695
H    23.02544975  14.41073799  54.69372940
H    18.19000053  14.13000011  56.09000397
H    17.29999924  16.05999947  51.55000305
H    19.47999954  15.76000023  50.94999695
H    21.86000061  14.89999962  51.35000229
H    20.69000053  14.06999969  55.52000046
H    12.48999977  16.11999893  55.65999985
H    23.22999954  14.60000038  52.88000107
H    22.98000145  12.97999954  53.56999969
