96

S    12.02000046  16.77000046  44.33000183
C     9.35000038  16.81999969  44.81999969
C    10.59000015  16.40999985  45.22999573
C    10.93000031  15.95000076  46.51000214
C     9.86999989  15.77000046  47.36000061
C     8.60999966  16.21000099  47.04999924
C     7.57999992  16.23999977  48.04000092
C     6.34000015  16.67000008  47.75000000
C     6.10000038  17.22999954  46.52000046
C     7.04999971  17.31999969  45.59999847
C     8.31999969  16.77999878  45.76000214
C    12.38000011  15.93999958  46.70000076
C    13.12000084  16.42000008  45.56999969
C    14.50000000  16.27000046  45.51000214
C     4.69999981  17.59000015  46.18000031
H     4.32928467  16.98667908  45.35134125
H     9.11999989  17.31999969  43.88999939
H     9.98999977  15.60999966  48.43000031
H     7.95000029  15.80000019  48.95999908
H     5.59999990  16.69000053  48.54999924
H     6.84000015  17.86000061  44.68000031
H    14.96999931  16.46999931  44.54999924
H     3.95000005  17.53999901  46.97000122
H     4.59999990  18.57999992  45.70999908
S    15.40999985  14.88000011  49.13999939
C    18.26000023  14.80000019  48.34999847
C    16.92000008  14.96999931  48.06999969
C    16.54000092  15.43000031  46.75000000
C    17.48999977  15.57000065  45.81999969
C    18.81000137  15.29000092  46.03000259
C    19.84000015  15.55999947  45.06000137
C    21.12999916  15.08999920  45.28999710
C    21.40999985  14.55999947  46.55000305
C    20.51000214  14.44000053  47.51999664
C    19.20999908  14.89999962  47.32999802
C    15.19000053  15.70000076  46.59999847
C    14.42999935  15.43000031  47.80000305
C    13.05999947  15.52999973  47.81999969
C    22.92000008  14.22000027  46.88000107
H    23.13442993  14.37527657  47.93735886
H    18.53999901  14.47999954  49.34999847
H    17.20000076  15.88999939  44.82999802
H    19.59000015  15.98999977  44.09999847
H    21.96000099  15.31999969  44.64000320
H    20.78000069  13.86999989  48.40000153
H    12.43000031  15.22999954  48.64999771
H    23.57000160  14.78000069  46.18999863
H    23.08000183  13.17999935  46.56999969
S    11.44000053  16.54000092  51.07999802
C     8.80000019  16.86000061  51.83000183
C    10.14000034  16.47999954  52.16999817
C    10.52999973  16.23999977  53.52000427
C     9.52999973  16.23999977  54.47999954
C     8.15999985  16.54999924  54.15999985
C     7.07999992  16.54000092  55.12000275
C     5.84000015  16.87000084  54.75999832
C     5.44000053  17.11000061  53.40999985
C     6.44000006  17.20000076  52.49000168
C     7.77999973  16.90000153  52.80000305
C    12.00000000  16.05999947  53.57999802
C    12.65999985  16.29999924  52.35000229
C    14.04000092  16.22999954  52.18999863
C     3.98999977  17.36999893  53.11999893
H     3.71452808  17.10197258  52.10000992
H     8.57999992  17.20000076  50.81999969
H     9.88000011  16.14999962  55.50000000
H     7.28999996  16.10999870  56.10000229
H     5.05000019  16.88999939  55.50000000
H     6.24000025  17.52000046  51.46999741
H    14.53999996  16.65999985  51.32999802
H     3.45000005  16.67000008  53.75999832
H     3.81000018  18.42000008  53.36999893
S    15.22999954  15.14000034  55.80999756
C    17.89999962  14.80000019  55.14999771
C    16.61999893  15.14999962  54.73999786
C    16.28000069  15.53999996  53.37999725
C    17.35999870  15.62000084  52.49000168
C    18.63000107  15.21000004  52.88999939
C    19.72999954  15.26000023  52.01000214
C    20.95999908  14.80999947  52.30999756
C    21.25999832  14.37999916  53.61000061
C    20.25000000  14.42000008  54.54999924
C    18.94000053  14.88999939  54.22999954
C    14.82999992  15.78999996  53.22999954
C    14.17000008  15.57000065  54.47000122
C    12.76999950  15.65000057  54.66999817
C    22.72000122  14.14000034  54.03999710
H    23.05807304  14.67947674  54.92473984
H    18.05999947  14.55000019  56.19999695
H    17.27000046  15.86999989  51.43000031
H    19.47999954  15.65999985  51.03000259
H    21.77000046  14.93999958  51.60999680
H    20.52000046  14.27999973  55.59999847
H    12.31999969  15.42000008  55.61999893
H    23.47999954  14.32999992  53.27000046
H    22.89999962  13.07000065  54.18000031
