96

S    12.30000019  16.80999947  43.95999908
C     9.65999985  17.14999962  44.65000153
C    10.88000107  16.69000053  45.00000000
C    11.21999931  16.15999985  46.26999664
C    10.17000008  16.13999939  47.28000259
C     8.90999985  16.56999969  46.91999817
C     7.86999989  16.63999939  47.90999985
C     6.63999987  17.02999878  47.51999664
C     6.30000019  17.53999901  46.20999908
C     7.30999994  17.53000069  45.22999573
C     8.60000038  17.02999878  45.58000183
C    12.64999962  15.86999989  46.42000198
C    13.38000107  16.31999969  45.27000046
C    14.73000050  16.18999863  45.20000076
C     4.86999989  17.87999916  45.80999756
H     4.50446653  17.09775734  45.14472580
H     9.44999981  17.53000069  43.66000366
H    10.27999973  15.67000008  48.25000000
H     8.02999973  16.34000015  48.94000244
H     5.84000015  16.76000023  48.22000122
H     7.09999990  17.78000069  44.19000244
H    15.26000023  16.45000076  44.29000092
H     4.18000031  18.00000000  46.65999985
H     4.88999987  18.88000107  45.35999680
S    15.70000076  15.03000069  48.88000107
C    18.39999962  14.57999992  48.11999893
C    17.14999962  15.06999969  47.83000183
C    16.79999924  15.57000065  46.49000168
C    17.82999992  15.72000027  45.52000046
C    19.14999962  15.29999924  45.80999756
C    20.13999939  15.39000034  44.86000061
C    21.45000076  14.98999977  45.17000198
C    21.71999931  14.27000046  46.33999634
C    20.69000053  14.09999943  47.27000427
C    19.38999939  14.68999958  47.09000015
C    15.39000034  15.75000000  46.36000061
C    14.68999958  15.52000046  47.56000137
C    13.30000019  15.53999996  47.58999634
C    23.12999916  13.90999985  46.70999908
H    23.45561790  14.60280704  47.48594284
H    18.55999947  14.11000061  49.09000015
H    17.61000061  16.18000031  44.55999756
H    19.82999992  15.82999992  43.92000198
H    22.29999924  15.27999973  44.55999756
H    20.95000076  13.66000080  48.22999954
H    12.75000000  15.38000011  48.50999832
H    23.74000168  14.06999969  45.80999756
H    23.23999786  12.89000034  47.09999847
S    11.77000046  16.77000046  50.76000214
C     9.10000038  17.19000053  51.52000046
C    10.38000011  16.70999908  51.81000137
C    10.73999977  16.13999939  53.08000183
C     9.76000023  16.06999969  54.03999710
C     8.46000004  16.61999893  53.85000229
C     7.46000004  16.54000092  54.86000061
C     6.17000008  16.73999977  54.50000000
C     5.75999975  17.20999908  53.15999985
C     6.74000025  17.43999863  52.23999786
C     8.09000015  17.14999962  52.55000305
C    12.13999939  15.81999969  53.20999908
C    12.86000061  16.13999939  52.01000214
C    14.27999973  16.28000069  51.90000153
C     4.34999990  17.69000053  52.95999908
H     3.99118996  17.41561508  51.96799850
H     8.78000069  17.60000038  50.56000137
H     9.94000053  15.43000031  54.89999771
H     7.72000027  16.13999939  55.83000183
H     5.45000029  16.68000031  55.30000305
H     6.58999968  18.07999992  51.37000275
H    14.81999969  16.63999939  51.03000259
H     3.65999985  17.29999924  53.72000122
H     4.30000019  18.78999901  53.00000000
S    15.39999962  15.32999992  55.63999939
C    18.02000046  14.98999977  54.92000198
C    16.79000092  15.44999981  54.59999847
C    16.42000008  15.81999969  53.26000214
C    17.39999962  15.84000015  52.25999832
C    18.72999954  15.44000053  52.63000107
C    19.85999870  15.51000023  51.72000122
C    21.11000061  14.96000099  52.06999969
C    21.28000069  14.27999973  53.30999756
C    20.23999977  14.29999924  54.25000000
C    18.98999977  14.88999939  53.89999771
C    15.03999901  15.98000050  53.06999969
C    14.32000065  15.67000008  54.31000137
C    12.94000053  15.53999996  54.38000107
C    22.63000107  13.75000000  53.74000168
H    22.96357727  14.38167000  54.56330109
H    18.25000000  14.55999947  55.89000320
H    17.13000107  15.97000027  51.20999908
H    19.79999924  16.18999863  50.87999725
H    21.97999954  15.22999954  51.47999573
H    20.38000107  13.90999985  55.26000214
H    12.43999958  15.36000061  55.31999969
H    23.31999969  13.73000050  52.88000107
H    22.43999863  12.76000023  54.18000031
