96

S    12.18999958  16.23999977  44.16999817
C     9.57999992  16.61000061  44.82999802
C    10.77000046  16.21999931  45.26000214
C    11.13000011  15.88000107  46.56999969
C    10.10000038  15.86999989  47.50000000
C     8.80999947  16.29999924  47.19999695
C     7.73999977  16.39000130  48.09999847
C     6.43000031  16.72999954  47.74000168
C     6.21000004  17.13999939  46.38999939
C     7.26999998  17.11000061  45.52000046
C     8.60000038  16.72999954  45.80999756
C    12.56000042  15.60999966  46.72000122
C    13.28999996  15.88999939  45.56999969
C    14.65999985  15.80999947  45.50000000
C     4.90999985  17.68000031  45.86000061
H     4.49782515  17.03331184  45.08539963
H     9.30000019  17.05999947  43.88000107
H    10.18000031  15.50000000  48.50999832
H     7.88000011  15.97000027  49.09000015
H     5.58000040  16.61999893  48.40000153
H     7.04999971  17.47999954  44.52000046
H    15.15999985  16.10999870  44.59000015
H     4.21000004  17.79000092  46.70000076
H     5.13999987  18.63000107  45.37000275
S    15.75000000  14.72000027  49.12000275
C    18.45000076  14.60000038  48.37999725
C    17.18000031  14.84000015  48.01000214
C    16.84000015  15.34999943  46.72999954
C    17.81999969  15.51000023  45.80999756
C    19.15999985  15.10000038  46.00000000
C    20.13000107  15.08999920  44.97000122
C    21.45000076  14.70000076  45.19000244
C    21.77999878  14.34000015  46.59000015
C    20.81000137  14.40000057  47.64999771
C    19.45999908  14.68999958  47.34000397
C    15.39000034  15.57000065  46.59000015
C    14.68999958  15.27999973  47.80000305
C    13.28999996  15.32999992  47.94000244
C    23.15000153  13.89999962  46.95999908
H    23.53622818  14.49628258  47.78666306
H    18.81999969  14.30999947  49.36000061
H    17.54999924  15.78999996  44.79000092
H    19.86999893  15.22999954  43.92000198
H    22.14999962  14.56999969  44.36999893
H    21.28000069  14.22000027  48.61000061
H    12.76000023  15.13000011  48.87000275
H    23.82999802  14.01000023  46.11000061
H    23.05999947  12.84000015  47.22000122
S    11.87000084  16.68000031  50.79999924
C     9.27999973  17.09000015  51.47999573
C    10.52000046  16.61999893  51.84999847
C    10.77000046  16.13000107  53.13000107
C     9.72000027  16.05999947  54.02000046
C     8.38999939  16.48999977  53.68999863
C     7.35000038  16.54000092  54.61999893
C     6.11000013  17.01000023  54.20000076
C     5.82000017  17.43000031  52.84999847
C     6.90000010  17.48999977  52.04000092
C     8.17000008  17.11000061  52.38999939
C    12.20000076  15.90999985  53.30999756
C    12.94999981  16.15999985  52.09999847
C    14.32999992  16.13000107  52.00000000
C     4.44000006  17.92000008  52.45999908
H     3.95666432  17.35009766  51.66646576
H     9.11999989  17.35999870  50.44000244
H     9.89999962  15.73999977  55.04000092
H     7.46999979  16.13000107  55.61999893
H     5.28999996  17.05999947  54.91000366
H     6.65999985  17.90999985  51.06999969
H    14.78999996  16.28999901  51.03000259
H     3.81999993  18.02000046  53.36000061
H     4.56999969  18.96999931  52.15999985
S    15.44999981  15.27999973  55.79000092
C    18.12000084  14.92000008  55.02999878
C    16.84000015  15.18000031  54.68999863
C    16.47999954  15.53999996  53.36999893
C    17.54999924  15.80000019  52.47000122
C    18.89000130  15.48999977  52.75000000
C    19.95000076  15.46000004  51.79999924
C    21.21000099  15.01999950  52.15999985
C    21.42000008  14.50000000  53.44999695
C    20.48000145  14.51000023  54.40000153
C    19.17000008  14.96000099  54.06999969
C    15.06999969  15.77999973  53.20999908
C    14.34000015  15.52999973  54.38000107
C    12.89000034  15.57000065  54.43999863
C    22.73999977  14.06000042  53.90999603
H    23.05378342  14.49657059  54.85817719
H    18.35000038  14.63999939  56.04999924
H    17.38000107  16.11999893  51.45000076
H    19.76000023  15.75000000  50.77000046
H    22.00000000  14.92000008  51.43000031
H    20.59999847  14.07999992  55.40000153
H    12.35000038  15.32999992  55.34999847
H    23.52000046  14.29999924  53.18000031
H    22.72000122  12.96000004  53.97999573
