96

S    12.35000038  16.46999931  44.27999878
C     9.68000031  16.62999916  44.94999695
C    10.93999958  16.28000069  45.24000168
C    11.28999901  15.77000046  46.51000214
C    10.29000092  15.80000019  47.45999908
C     8.93000031  16.20000076  47.15000153
C     7.88000011  16.13999939  48.16999817
C     6.61000013  16.35000038  47.75000000
C     6.32999992  16.98999977  46.53999710
C     7.32999992  17.19000053  45.58000183
C     8.64999962  16.73999977  45.89000320
C    12.71999931  15.57000065  46.70000076
C    13.45000076  15.90999985  45.56999969
C    14.84000015  15.92000008  45.50000000
C     4.96000004  17.38999939  46.20999908
H     4.47549915  16.64569473  45.57804108
H     9.23999977  16.97000122  44.01000214
H    10.50000000  15.65999985  48.50999832
H     8.13000011  15.88000107  49.20000076
H     5.82000017  16.22999954  48.48999786
H     7.14999962  17.56000137  44.56999969
H    15.29999924  16.35000038  44.61000061
H     4.32999992  17.52000046  47.09999847
H     5.03999996  18.38000107  45.76000214
S    15.82999992  14.23999977  48.88000107
C    18.52000046  14.14000034  48.27999878
C    17.28999901  14.63999939  47.97999954
C    17.05000114  15.36999893  46.75000000
C    18.11000061  15.51000023  45.81999969
C    19.40000153  15.01000023  46.10000229
C    20.52999878  15.06999969  45.25000000
C    21.73999977  14.60999966  45.70999908
C    21.93000031  13.97999954  46.90999985
C    20.76999855  13.78999901  47.71999741
C    19.55000114  14.34999943  47.35000229
C    15.57999992  15.52999973  46.59999847
C    14.86999989  15.06999969  47.72999573
C    13.48000050  15.08999920  47.75000000
C    23.32999992  13.68000031  47.37999725
H    23.59175491  14.23888493  48.27845764
H    18.64999962  13.55000019  49.18000031
H    17.82999992  15.82999992  44.81999969
H    20.46999931  15.65999985  44.34000015
H    22.60000038  14.91000080  45.11000061
H    20.79999924  13.35000038  48.72000122
H    12.92000008  14.78000069  48.62999725
H    24.03000069  13.86999989  46.55000305
H    23.35000038  12.61000061  47.63000107
S    12.06999969  16.36999893  50.73999786
C     9.47000027  16.87000084  51.52999878
C    10.72999954  16.35000038  51.79000092
C    11.10999966  15.90999985  53.09999847
C    10.11999989  16.02000046  54.12000275
C     8.80999947  16.36000061  53.82999802
C     7.72000027  16.34000015  54.80999756
C     6.51000023  16.81999969  54.51000214
C     6.15000010  17.26000023  53.20000076
C     7.13999987  17.22999954  52.25000000
C     8.45000076  16.87000084  52.54000092
C    12.51999950  15.67999935  53.22999954
C    13.23999977  15.84000015  52.01000214
C    14.61999989  15.62000084  51.86999893
C     4.76000023  17.64000130  52.88000107
H     4.37936163  17.18887329  51.96364975
H     9.30999947  17.28999901  50.54000092
H    10.34000015  15.55999947  55.07999802
H     7.94000053  16.09000015  55.84000015
H     5.84999990  17.05000114  55.34000015
H     6.89000034  17.61000061  51.25999832
H    15.03999901  15.69000053  50.86999893
H     4.23000002  17.30999947  53.77999878
H     4.69000006  18.72999954  52.78999710
S    15.85000038  14.88000011  55.63999939
C    18.40999985  14.42999935  54.86000061
C    17.13999939  14.73999977  54.52999878
C    16.79000092  14.88000011  53.13999939
C    17.79999924  14.93999958  52.15999985
C    19.17000008  14.75999928  52.51999664
C    20.34000015  14.80000019  51.66999817
C    21.60000038  14.50000000  52.16999817
C    21.76000214  14.02999973  53.50000000
C    20.71000099  14.07999992  54.38999939
C    19.43000031  14.48999977  53.94000244
C    15.36000061  15.22999954  53.02000046
C    14.67000008  15.31000042  54.31999969
C    13.28999996  15.54999924  54.43000031
C    23.21000099  13.67000008  53.99000168
H    23.47066879  14.14331818  54.93663788
H    18.68999863  14.07999992  55.86000061
H    17.52000046  15.34000015  51.18999863
H    20.15999985  14.94999981  50.61000061
H    22.47999954  14.47000027  51.52999878
H    20.81999969  13.78999901  55.44000244
H    12.81000042  15.62000084  55.40000153
H    23.88999939  13.96999931  53.18999863
H    23.32999992  12.57999992  54.02000046
