96

S    12.13999939  16.14999962  44.19000244
C     9.51000023  16.90000153  45.01999664
C    10.77000046  16.35000038  45.27999878
C    11.03000069  15.82999992  46.59000015
C    10.03000069  15.72000027  47.50999832
C     8.73999977  16.32999992  47.30999756
C     7.65999985  16.26000023  48.26000214
C     6.35999966  16.72999954  47.95000076
C     6.15999985  17.32999992  46.65000153
C     7.17999983  17.35000038  45.72999954
C     8.47999954  16.87000084  46.03000259
C    12.41000080  15.50000000  46.73999786
C    13.10999966  15.70000076  45.54999924
C    14.47999954  15.50000000  45.45999908
C     4.76999998  17.80999947  46.18000031
H     4.47743273  17.26768112  45.28089142
H     9.26999950  17.38999939  44.08000183
H    10.26000023  15.36999893  48.50999832
H     7.77999973  15.82999992  49.25000000
H     5.59000015  16.61000061  48.69999695
H     7.07999992  17.84000015  44.77000427
H    15.01000023  15.80999947  44.55999756
H     4.13999987  17.60000038  47.04999924
H     4.65999985  18.90999985  46.13999939
S    15.51000023  14.40000057  49.15000153
C    18.27000046  14.27999973  48.47999954
C    16.95999908  14.67000008  48.18999863
C    16.61000061  15.14000034  46.90000153
C    17.60000038  15.32999992  45.93999863
C    18.93000031  14.91000080  46.20999908
C    19.92000008  15.01000023  45.20000076
C    21.21999931  14.68000031  45.40000153
C    21.57999992  14.09999943  46.60999680
C    20.63999939  13.90999985  47.60000229
C    19.27000046  14.30999947  47.45999908
C    15.17000008  15.11000061  46.65000153
C    14.39000034  14.77000046  47.81999969
C    13.04999924  15.06000042  47.90999985
C    23.03999901  13.90999985  46.90999985
H    23.27880478  14.49678135  47.79699326
H    18.54999924  13.89000034  49.45999908
H    17.42000008  15.67999935  44.93000031
H    19.55999947  15.46000004  44.27999878
H    21.87000084  14.82999992  44.54000092
H    21.02000046  13.71000099  48.60000229
H    12.58999920  14.88000011  48.88000107
H    23.59000015  14.18000031  46.00000000
H    23.12999916  12.86999893  47.23999786
S    15.90000057  12.38000011  52.45999908
C    18.53000069  12.05999947  51.63000107
C    17.19000053  11.84000015  51.42000198
C    16.70999908  11.18999958  50.22999573
C    17.53999901  10.76000023  49.23999786
C    18.92000008  10.90999985  49.34000015
C    19.80999947  10.39999962  48.41999817
C    21.18999863  10.48999977  48.67000198
C    21.61999893  10.98999977  49.89999771
C    20.78000069  11.56000042  50.83000183
C    19.38999939  11.56999969  50.59000015
C    15.26999950  11.28999901  50.07999802
C    14.68999958  11.97999954  51.17000198
C    13.38999939  12.43000031  51.18000031
C    23.12000084  10.72000027  50.18000031
H    23.39112663  10.95045757  51.21028137
H    18.96000099  12.71000004  52.38999939
H    17.20000076  10.29000092  48.31999969
H    19.43000031   9.92000008  47.51999664
H    21.94999886  10.14999962  47.97000122
H    21.14999962  11.82000065  51.81999969
H    13.02000046  13.00000000  52.02999878
H    23.23999786   9.65999985  49.92000198
H    23.64999962  11.38000011  49.48999786
S    11.95000076  11.36999989  47.58999634
C     9.30999947  12.22000027  48.46000290
C    10.67999935  12.07999992  48.64999771
C    11.19999981  12.56999969  49.87999725
C    10.34000015  13.15000057  50.84999847
C     8.93000031  13.01000023  50.65000153
C     8.03999996  13.53999996  51.63999939
C     6.69000053  13.68000031  51.37000275
C     6.19000006  13.30000019  50.11000061
C     6.98999977  12.79000092  49.16999817
C     8.38000011  12.58999920  49.41999817
C    12.56999969  12.20000076  50.08999634
C    13.10999966  11.56999969  48.94000244
C    14.47000027  11.10999966  48.93000031
C     4.81999969  13.69999981  49.79999924
H     4.55261564  13.25435829  48.84186935
H     8.97000027  12.05999947  47.43999863
H    10.75000000  13.63999939  51.72999954
H     8.52000046  13.93000031  52.54000092
H     6.01000023  14.32000065  51.93000031
H     6.71000004  12.76999950  48.11999893
H    14.75000000  10.72999954  47.95000076
H     4.90000010  14.78999996  49.79000092
H     4.23999977  13.45999908  50.70000076
