96

S    12.42000008  16.77000046  44.15999985
C     9.77000046  16.94000053  44.82999802
C    11.00999928  16.51000023  45.17000198
C    11.36000061  16.05999947  46.46999741
C    10.46000004  16.13000107  47.51999664
C     9.17000008  16.64999962  47.21000290
C     8.07999992  16.54000092  48.09999847
C     6.75000000  16.80999947  47.81000137
C     6.40999985  17.19000053  46.47999573
C     7.40999985  17.20999908  45.48999786
C     8.78000069  16.93000031  45.81999969
C    12.81000042  15.98000050  46.62000275
C    13.48000050  16.40999985  45.45999908
C    14.91000080  16.44000053  45.44000244
C     4.98000002  17.51000023  46.11000061
H     4.55794239  16.73252487  45.47320938
H     9.61999989  17.23999977  43.80000305
H    10.53999996  15.57000065  48.44999695
H     8.25000000  16.18000031  49.10999680
H     5.95000029  16.51000023  48.47999954
H     7.09999990  17.46999931  44.47999954
H    15.31999969  16.72000122  44.47000122
H     4.42000008  17.56000137  47.04999924
H     4.94000006  18.48999977  45.59999847
S    16.01000023  15.21999931  49.06999969
C    18.71999931  14.77000046  48.25000000
C    17.45000076  15.21000004  47.95000076
C    17.12000084  15.77000046  46.62000275
C    18.05999947  15.72000027  45.63000107
C    19.34000015  15.21000004  45.89000320
C    20.36000061  15.17000008  44.89999771
C    21.63000107  14.84000015  45.21999741
C    21.97999954  14.47999954  46.56999969
C    21.02000046  14.42000008  47.49000168
C    19.67000008  14.77000046  47.15000153
C    15.70000076  16.03999901  46.52999878
C    14.94999981  15.72000027  47.75000000
C    13.57999992  15.72999954  47.77999878
C    23.38999939  14.19999981  46.93999863
H    23.57730865  14.41612530  47.99180984
H    19.06999969  14.47000027  49.22999954
H    17.73999977  16.02000046  44.62999725
H    20.06999969  15.55999947  43.92000198
H    22.44999886  14.93000031  44.52000046
H    21.19999886  14.04000092  48.48999786
H    13.09999943  15.72000027  48.75999832
H    23.98999977  14.85999966  46.30000305
H    23.69999886  13.15999985  46.79999924
S    11.87999916  16.92000008  50.77999878
C     9.25000000  17.35000038  51.56000137
C    10.46000004  16.76000023  51.77999878
C    10.88000107  16.11999893  53.00000000
C     9.94999981  16.05999947  53.96999741
C     8.65999985  16.51000023  53.77999878
C     7.68000031  16.36000061  54.79000092
C     6.39999962  16.90999985  54.68999863
C     6.01999998  17.48999977  53.46000290
C     6.90999985  17.53999901  52.39999771
C     8.28999996  17.13000107  52.57999802
C    12.30999947  15.88000107  53.18999863
C    13.02999973  16.36000061  52.06999969
C    14.40999985  16.36000061  52.01000214
C     4.63999987  17.90999985  53.15000153
H     4.24138689  17.39749718  52.27447510
H     9.02000046  17.97000122  50.70000076
H    10.24000072  15.67000008  54.94999695
H     7.99000025  15.72000027  55.61000061
H     5.59999990  16.79000092  55.40999985
H     6.63000011  17.92000008  51.42000198
H    15.01999950  16.79000092  51.22000122
H     3.91999984  17.71000099  53.95999908
H     4.59000015  18.96999931  52.87000275
S    15.51000023  15.05000019  55.65000153
C    18.17000008  15.14000034  55.08999634
C    16.87000084  15.39999962  54.75999832
C    16.54000092  15.88999939  53.44999695
C    17.45000076  16.05999947  52.43000031
C    18.78000069  15.62999916  52.70999908
C    19.77000046  15.67000008  51.65999985
C    21.09999847  15.25000000  51.88999939
C    21.38999939  14.70999908  53.18000031
C    20.45000076  14.63999939  54.16999817
C    19.13999939  15.18000031  54.02999878
C    15.10000038  15.92000008  53.16999817
C    14.37000084  15.44999981  54.27999878
C    12.97999954  15.43000031  54.31999969
C    22.86000061  14.45000076  53.53000259
H    23.12670135  14.97656250  54.44635773
H    18.45000076  14.61999989  56.00000000
H    17.13000107  16.36999893  51.44000244
H    19.40999985  16.05999947  50.72000122
H    21.90999985  15.44999981  51.18999863
H    20.72000122  14.28999996  55.15999603
H    12.44999981  15.07999992  55.20999908
H    23.55999947  14.72000027  52.71999741
H    22.98000145  13.38000107  53.74000168
