96

S    12.01000023  16.64999962  44.22000122
C     9.44000053  17.01000023  45.08999634
C    10.65999985  16.54000092  45.31999969
C    11.00999928  16.01000023  46.59000015
C    10.01000023  15.93999958  47.56999969
C     8.71000004  16.52000046  47.31999969
C     7.57000017  16.48999977  48.25000000
C     6.37000036  16.98999977  47.97000122
C     6.12999964  17.61999893  46.70999908
C     7.18999958  17.65999985  45.81999969
C     8.43999958  17.05000114  46.05999756
C    12.48000050  15.84000015  46.73999786
C    13.12000084  16.00000000  45.47999954
C    14.44000053  15.77000046  45.33000183
C     4.71000004  18.06999969  46.26999664
H     4.38941145  17.56820869  45.35701752
H     9.28999996  17.54999924  44.15999985
H    10.07999992  15.26999950  48.41999817
H     7.63000011  16.00000000  49.22000122
H     5.56999969  16.95999908  48.70999908
H     6.89000034  18.02000046  44.82999802
H    14.77000046  15.72999954  44.29999924
H     3.93000007  17.71000099  46.95000076
H     4.65999985  19.17000008  46.29000092
S    15.81999969  15.07999992  49.02999878
C    18.30999947  14.80000019  48.26000214
C    17.05999947  15.14999962  47.87000275
C    16.69999886  15.40999985  46.56000137
C    17.67000008  15.27999973  45.59999847
C    19.00000000  14.88000011  45.96000290
C    19.98999977  14.75999928  45.00000000
C    21.28000069  14.30999947  45.35999680
C    21.54999924  13.89999962  46.69000244
C    20.65999985  14.07999992  47.64999771
C    19.34000015  14.59000015  47.31999969
C    15.26000023  15.55999947  46.47999573
C    14.61999989  15.47999954  47.70999908
C    13.30000019  15.55999947  47.84000015
C    22.95000076  13.40000057  47.04000092
H    23.39007950  14.01322746  47.82637405
H    18.48999977  14.59000015  49.31999969
H    17.31999969  15.44999981  44.58000183
H    19.77000046  15.08999920  43.99000168
H    21.93000031  14.27999973  44.48999786
H    20.79999924  13.86000061  48.69999695
H    12.94000053  15.47000027  48.86000061
H    23.52000046  13.69999981  46.14999771
H    22.92000008  12.30999947  47.18000031
S    11.21000099  16.63999939  50.76000214
C     8.69999981  17.36999893  51.49000168
C     9.89999962  16.82999992  51.86999893
C    10.07999992  16.51000023  53.25000000
C     9.04999924  16.56999969  54.19000244
C     7.77999973  16.98999977  53.72000122
C     6.63999987  16.88999939  54.52999878
C     5.38999987  17.35999870  54.15000153
C     5.17000008  17.75000000  52.77999878
C     6.30999994  17.92000008  51.95999908
C     7.59999990  17.42000008  52.34000397
C    11.50000000  16.13000107  53.34000015
C    12.28000069  16.17000008  52.08000183
C    13.63999939  16.06999969  51.98999786
C     3.78999996  18.11000061  52.27000427
H     3.32590652  17.28177261  51.73450851
H     8.65999985  17.75000000  50.47000122
H     9.13999939  16.22999954  55.21999741
H     6.78999996  16.55999947  55.54999924
H     4.53999996  17.34000015  54.82999802
H     6.21999979  18.29000092  50.93999863
H    14.14000034  16.10999870  51.03000259
H     3.07000017  18.35000038  53.06999969
H     3.86000013  19.02000046  51.66999817
S    14.73000050  15.39999962  55.75000000
C    17.46999931  15.25000000  55.06999969
C    16.10999870  15.44999981  54.71000290
C    15.71000004  15.90000057  53.39000320
C    16.72999954  16.07999992  52.44999695
C    18.09999847  15.81999969  52.77000046
C    19.13999939  15.85000038  51.79000092
C    20.36999893  15.31999969  52.04000092
C    20.75000000  14.94999981  53.31999969
C    19.79999924  14.98999977  54.34000015
C    18.48999977  15.40999985  54.08000183
C    14.28999996  15.95999908  53.20999908
C    13.59000015  15.70000076  54.40999985
C    12.18999958  15.75000000  54.47999954
C    22.07999992  14.40999985  53.61999893
H    22.38355064  14.66912746  54.63430023
H    17.72999954  14.91000080  56.06999969
H    16.46000099  16.39000130  51.44000244
H    18.78000069  16.21000099  50.83000183
H    21.02000046  15.31000042  51.17000198
H    19.95000076  14.59000015  55.34000015
H    11.59999943  15.47999954  55.34999847
H    22.70000076  14.78000069  52.78999710
H    22.07999992  13.30999947  53.54000092
