96

S    12.46999931  16.73999977  44.62999725
C     9.86999989  17.12000084  45.45000076
C    11.10000038  16.61999893  45.72000122
C    11.39000034  16.09000015  47.01000214
C    10.36999893  15.92000008  47.94000244
C     9.00000000  16.22999954  47.63000107
C     7.90999985  16.07999992  48.53000259
C     6.63999987  16.55999947  48.18000031
C     6.47000027  17.22999954  46.95000076
C     7.57000017  17.42000008  46.07999802
C     8.82999992  16.92000008  46.38000107
C    12.84000015  15.88000107  47.11999893
C    13.53000069  16.28999901  45.97000122
C    14.94999981  16.21999931  45.90999985
C     5.03999996  17.76000023  46.56999969
H     4.68635798  17.37099266  45.61516571
H     9.52000046  17.43999863  44.47000122
H    10.62000084  15.52000046  48.92000198
H     8.10000038  15.57999992  49.47000122
H     5.78000021  16.54000092  48.83999634
H     7.42999983  18.00000000  45.17000198
H    15.59000015  16.31999969  45.04000092
H     4.50000000  17.28999901  47.39999771
H     4.90000010  18.85000038  46.59000015
S    16.04999924  14.93000031  49.59000015
C    18.60999870  14.52000046  48.80000305
C    17.34000015  14.88000011  48.40000153
C    16.98999977  15.36000061  47.11000061
C    17.97000122  15.36000061  46.11000061
C    19.19000053  14.82999992  46.50000000
C    20.35000038  14.89999962  45.65000153
C    21.61999893  14.39000034  45.91999817
C    21.90999985  13.96000004  47.25000000
C    20.88999939  14.02999973  48.15999985
C    19.55999947  14.44000053  47.83000183
C    15.64000034  15.81999969  47.02000046
C    14.98000050  15.47000027  48.22999954
C    13.59000015  15.52999973  48.27000046
C    23.26000023  13.48999977  47.61000061
H    23.60416031  13.84164238  48.58262634
H    18.94000053  14.30999947  49.80999756
H    17.90999985  15.85999966  45.14999771
H    20.00000000  15.26999950  44.68999863
H    22.39000130  14.40999985  45.14999771
H    21.09999847  13.81999969  49.20000076
H    13.12000084  15.18000031  49.18000031
H    23.95999908  13.66000080  46.77999878
H    23.15000153  12.39999962  47.58999634
S    11.92999935  16.65999985  51.16000366
C     9.26999950  17.18000031  51.86999893
C    10.52999973  16.67000008  52.18000031
C    10.84000015  16.13999939  53.48999786
C     9.80000019  16.04999924  54.38000107
C     8.47999954  16.55999947  54.12000275
C     7.44000006  16.45000076  55.10000229
C     6.15999985  16.90000153  54.77000427
C     5.77000046  17.35999870  53.47999954
C     6.81999969  17.47999954  52.55000305
C     8.15999985  17.06999969  52.81000137
C    12.25999928  15.93999958  53.70999908
C    12.97999954  16.26000023  52.56999969
C    14.34000015  16.13000107  52.50999832
C     4.34999990  17.72999954  53.15000153
H     3.95439410  17.14665031  52.31855774
H     9.09000015  17.71000099  50.93999863
H     9.78999996  15.69000053  55.40000153
H     7.69000006  16.05999947  56.07999802
H     5.42000008  16.63999939  55.52000046
H     6.75000000  18.04999924  51.62000275
H    14.84000015  16.10000038  51.55000305
H     3.75999975  17.69000053  54.06999969
H     4.26999998  18.77000046  52.83000183
S    15.31000042  14.93999958  56.12999725
C    17.97000122  14.56999969  55.43000031
C    16.69000053  15.05000019  55.11000061
C    16.38000107  15.52000046  53.76999664
C    17.39999962  15.65999985  52.88999939
C    18.71000099  15.10000038  53.18000031
C    19.80999947  15.13000011  52.31999969
C    21.04000092  14.65000057  52.56000137
C    21.31999969  14.06999969  53.82999802
C    20.31999969  14.01000023  54.73999786
C    19.01000023  14.50000000  54.43000031
C    14.98000050  15.65999985  53.63999939
C    14.26000023  15.36000061  54.79999924
C    12.86999893  15.44999981  54.88999939
C    22.73999977  13.63000011  54.15000153
H    23.05308914  14.19925404  55.02523041
H    18.12999916  14.19999981  56.44000244
H    17.10000038  16.03999901  51.90999985
H    19.68000031  15.57000065  51.32999802
H    21.80000114  14.80000019  51.79999924
H    20.56999969  13.71000099  55.75000000
H    12.42000008  15.10000038  55.81999969
H    23.39999962  13.81999969  53.29000092
H    22.85000038  12.56000042  54.33000183
