96

S    12.42000008  16.77000046  44.15999985
C     9.77000046  16.94000053  44.82999802
C    11.00999928  16.51000023  45.17000198
C    11.36000061  16.05999947  46.46999741
C    10.46000004  16.13000107  47.51999664
C     9.17000008  16.64999962  47.21000290
C     8.07999992  16.54000092  48.09999847
C     6.75000000  16.80999947  47.81000137
C     6.40999985  17.19000053  46.47999573
C     7.40999985  17.20999908  45.48999786
C     8.78000069  16.93000031  45.81999969
C    12.81000042  15.98000050  46.62000275
C    13.48000050  16.40999985  45.45999908
C    14.91000080  16.44000053  45.44000244
C     4.98000002  17.51000023  46.11000061
H     4.55794239  16.73252487  45.47320938
H     9.61999989  17.23999977  43.80000305
H    10.53999996  15.57000065  48.44999695
H     8.25000000  16.18000031  49.10999680
H     5.95000029  16.51000023  48.47999954
H     7.09999990  17.46999931  44.47999954
H    15.31999969  16.72000122  44.47000122
H     4.42000008  17.56000137  47.04999924
H     4.94000006  18.48999977  45.59999847
S    16.01000023  15.21999931  49.06999969
C    18.71999931  14.77000046  48.25000000
C    17.45000076  15.21000004  47.95000076
C    17.12000084  15.77000046  46.62000275
C    18.05999947  15.72000027  45.63000107
C    19.34000015  15.21000004  45.89000320
C    20.36000061  15.17000008  44.89999771
C    21.63000107  14.84000015  45.21999741
C    21.97999954  14.47999954  46.56999969
C    21.02000046  14.42000008  47.49000168
C    19.67000008  14.77000046  47.15000153
C    15.70000076  16.03999901  46.52999878
C    14.94999981  15.72000027  47.75000000
C    13.57999992  15.72999954  47.77999878
C    23.38999939  14.19999981  46.93999863
H    23.57730865  14.41612530  47.99180984
H    19.06999969  14.47000027  49.22999954
H    17.73999977  16.02000046  44.62999725
H    20.06999969  15.55999947  43.92000198
H    22.44999886  14.93000031  44.52000046
H    21.19999886  14.04000092  48.48999786
H    13.09999943  15.72000027  48.75999832
H    23.98999977  14.85999966  46.30000305
H    23.69999886  13.15999985  46.79999924
S    16.10000038  12.60000038  52.18999863
C    18.71000099  12.15999985  51.30000305
C    17.40999985  12.23000050  51.03000259
C    16.92000008  11.96000004  49.73999786
C    17.85000038  11.67000008  48.75999832
C    19.25000000  11.67000008  49.02000046
C    20.19000053  11.13000011  48.06000137
C    21.54000092  11.03000069  48.37999725
C    22.01999855  11.28999901  49.71000290
C    21.11999893  11.57999992  50.70999908
C    19.72999954  11.82000065  50.35999680
C    15.44000053  12.10999966  49.68000031
C    14.85999966  12.38999939  50.93999863
C    13.53999996  12.81999969  51.04999924
C    23.40999985  10.90999985  50.04000092
H    23.82189560  11.16132641  51.01738358
H    19.01000023  12.32999992  52.32999802
H    17.56000137  11.31999969  47.77999878
H    19.81999969  10.76000023  47.11000061
H    22.19000053  10.47000027  47.71999741
H    21.42000008  11.72000027  51.75000000
H    13.09000015  13.07000065  52.01000214
H    23.61000061   9.82999992  49.95999908
H    24.04999924  11.38000011  49.27999878
S    12.02000046  12.20000076  47.42000198
C     9.44000053  12.41000080  48.43999863
C    10.78999996  12.53999901  48.61000061
C    11.36999989  12.79000092  49.84000397
C    10.48999977  13.09000015  50.86999893
C     9.04999924  13.10999966  50.75000000
C     8.15999985  13.64999962  51.70999908
C     6.84999990  13.81000042  51.40999603
C     6.38000011  13.55999947  50.06000137
C     7.23999977  12.93000031  49.16999817
C     8.56999969  12.71000004  49.47999954
C    12.77999973  12.79000092  49.86999893
C    13.28999996  12.42000008  48.61000061
C    14.65999985  12.10999966  48.53000259
C     4.97000027  13.85000038  49.55999756
H     4.72475195  13.47862434  48.56499481
H     9.02000046  12.18999958  47.45999908
H    10.82999992  13.64999962  51.72999954
H     8.56999969  14.14999962  52.57999802
H     6.12999964  13.99000072  52.19999695
H     6.98000002  12.72999954  48.13000107
H    15.14000034  12.07999992  47.56000137
H     4.84000015  14.93000031  49.58000183
H     4.18000031  13.55000019  50.26000214
