96

S    12.18999958  16.53000069  44.12000275
C     9.48999977  16.93000031  44.99000168
C    10.76000023  16.43000031  45.18000031
C    11.14999962  15.77000046  46.35000229
C    10.14000034  15.59000015  47.36999893
C     8.80999947  16.14999962  47.18999863
C     7.83999968  16.10000038  48.16999817
C     6.57999992  16.53000069  47.95999908
C     6.25000000  17.20999908  46.72999954
C     7.16000032  17.42000008  45.79000092
C     8.46000004  16.87000084  45.96000290
C    12.56000042  15.51000023  46.52000046
C    13.28999996  15.80999947  45.31999969
C    14.70999908  15.82999992  45.34000015
C     4.79999971  17.45000076  46.39999771
H     4.45653248  16.98737144  45.47473907
H     9.22000027  17.47999954  44.09000015
H    10.34000015  15.31000042  48.40000153
H     8.00000000  15.54999924  49.09999847
H     5.68000031  16.36000061  48.54000092
H     6.90999985  17.84000015  44.80999756
H    15.22999954  16.14999962  44.43999863
H     4.19000006  17.13999939  47.25000000
H     4.53000021  18.51000023  46.38999939
S    15.67000008  15.01000023  49.02999878
C    18.34000015  14.80999947  48.40000153
C    17.06999969  15.15999985  48.04000092
C    16.72000122  15.48999977  46.70000076
C    17.71999931  15.77999973  45.72999954
C    18.97999954  15.27999973  46.04000092
C    20.00000000  15.47000027  45.07999802
C    21.30000114  15.11000061  45.31000137
C    21.63000107  14.65000057  46.63000107
C    20.66999817  14.60000038  47.61000061
C    19.30999947  14.80999947  47.36999893
C    15.34999943  15.57999992  46.52000046
C    14.63000107  15.27999973  47.67000198
C    13.26000023  15.15999985  47.67000198
C    23.06999969  14.42999935  46.93999863
H    23.29445267  14.60535431  47.99212646
H    18.68000031  14.53999996  49.40000153
H    17.43999863  16.18999863  44.77000427
H    19.77000046  15.90000057  44.10999680
H    22.04999924  15.26999950  44.54000092
H    20.97999954  14.42999935  48.63999939
H    12.76000023  15.01999950  48.61999893
H    23.69999886  15.03000069  46.26999664
H    23.13999939  13.36999989  46.65999985
S    12.25000000  16.57999992  50.72999954
C     9.48000050  16.69999886  51.30000305
C    10.78999996  16.51000023  51.73999786
C    11.07999992  16.13000107  53.09999847
C    10.03999901  16.04999924  53.97999573
C     8.69999981  16.39999962  53.66000366
C     7.67000008  16.39999962  54.64000320
C     6.42000008  16.82999992  54.22000122
C     6.14000034  17.35999870  52.90999985
C     7.14999962  17.30999947  51.97999954
C     8.43000031  16.81999969  52.28000259
C    12.53999901  15.85999966  53.34999847
C    13.26000023  16.02000046  52.15000153
C    14.57999992  16.06999969  52.15000153
C     4.73000002  17.98999977  52.67000198
H     4.34742069  17.45863914  51.79857254
H     9.31999969  17.10000038  50.30000305
H    10.27999973  15.72000027  54.99000168
H     7.96000004  16.22999954  55.66999817
H     5.59000015  16.81999969  54.92000198
H     6.98000002  17.79999924  51.02000427
H    15.03999901  16.14999962  51.17000198
H     4.13000011  17.86999893  53.57999802
H     4.80999994  19.07999992  52.55000305
S    15.73999977  15.34999943  55.84000015
C    18.30999947  14.78000069  55.00999832
C    17.05999947  15.27999973  54.69999695
C    16.79000092  15.77000046  53.43000031
C    17.75000000  15.76000023  52.45999908
C    19.00000000  15.38000011  52.70000076
C    20.05000114  15.52999973  51.81000137
C    21.30000114  14.94999981  52.04000092
C    21.61999893  14.37999916  53.33000183
C    20.63999939  14.25000000  54.29000092
C    19.31999969  14.81999969  54.06000137
C    15.31999969  15.93000031  53.30999756
C    14.63999939  15.65000057  54.45999908
C    13.26000023  15.59000015  54.54000092
C    23.03999901  13.97999954  53.68999863
H    23.33099365  14.51940155  54.59136963
H    18.42000008  14.47000027  56.04999924
H    17.43999863  16.05999947  51.46999741
H    19.84000015  16.03000069  50.86999893
H    22.10000038  14.93000031  51.30000305
H    20.94000053  13.88000011  55.27000046
H    12.77999973  15.39000034  55.48999786
H    23.68999863  14.09999943  52.81999969
H    23.05999947  12.90999985  53.94000244
