96

S    12.11999989  16.75000000  44.09999847
C     9.51000023  16.90000153  44.86999893
C    10.77999973  16.62999916  45.24000168
C    11.17000008  16.14999962  46.52000046
C    10.19000053  15.98999977  47.47000122
C     8.88000011  16.46000099  47.23999786
C     7.73999977  16.39000130  48.13999939
C     6.57000017  17.02999878  47.84000015
C     6.28000021  17.50000000  46.50000000
C     7.27999973  17.56000137  45.54999924
C     8.52999973  16.95999908  45.89000320
C    12.60000038  15.93000031  46.59000015
C    13.28999996  16.20000076  45.38999939
C    14.68000031  16.20000076  45.38000107
C     4.84000015  17.78000069  46.09000397
H     4.57204342  17.32165527  45.13805008
H     9.23999977  17.31999969  43.89999771
H    10.44000053  15.40999985  48.36000061
H     7.83999968  15.78999996  49.03999710
H     5.82000017  17.10000038  48.61999893
H     7.13999987  18.18000031  44.66999817
H    15.26000023  16.59000015  44.54999924
H     4.25000000  17.40999985  46.93999863
H     4.63999987  18.84000015  45.91999817
S    15.52999973  14.82999992  49.05000305
C    18.20999908  14.55000019  48.27999878
C    17.02000046  15.14999962  48.09999847
C    16.70999908  15.71000004  46.79999924
C    17.68000031  15.86999989  45.84999847
C    19.03000069  15.44000053  46.11999893
C    20.07999802  15.57000065  45.11000061
C    21.31999969  15.10000038  45.40000153
C    21.61000061  14.46000004  46.65999985
C    20.59000015  14.27999973  47.56999969
C    19.29999924  14.80000019  47.39999771
C    15.29999924  15.86999989  46.60999680
C    14.59000015  15.39999962  47.77000046
C    13.20000076  15.44999981  47.70000076
C    23.01000214  14.01999950  47.11000061
H    23.30463791  14.29307938  48.12327194
H    18.22999954  13.81999969  49.08000183
H    17.40999985  16.02000046  44.80999756
H    19.90999985  16.06999969  44.15999985
H    22.11999893  15.39000034  44.72999954
H    20.72000122  13.69999981  48.47999954
H    12.61000061  15.27999973  48.60000229
H    23.69999886  14.46000004  46.37000275
H    22.98999977  12.93000031  47.00000000
S    15.80000019  12.06999969  52.23999786
C    18.39999962  11.89000034  51.52000046
C    17.12000084  11.79999924  51.11999893
C    16.70999908  11.44000053  49.79999924
C    17.61999893  11.00000000  48.86000061
C    19.00000000  11.05000019  49.29999924
C    19.96000099  10.52999973  48.34000015
C    21.21000099  10.55999947  48.63999939
C    21.61000061  11.10000038  49.89999771
C    20.72000122  11.51000023  50.89000320
C    19.37999916  11.54000092  50.56999969
C    15.27999973  11.57999992  49.72999954
C    14.65999985  11.97999954  50.94999695
C    13.27000046  12.31999969  51.00000000
C    22.98999977  10.86999989  50.33000183
H    23.32975006  11.32762337  51.25911331
H    18.68000031  12.25999928  52.50000000
H    17.15999985  10.52999973  48.00000000
H    19.65999985   9.96000004  47.47000122
H    21.93000031  10.01999950  48.04000092
H    21.02999878  11.59999943  51.93000031
H    12.71999931  12.20000076  51.93000031
H    23.15000153   9.78999996  50.34000015
H    23.65999985  11.33999920  49.59000015
S    11.87000084  11.72999954  47.28000259
C     9.25000000  12.39999962  48.13000107
C    10.59000015  12.25999928  48.40999985
C    11.06999969  12.63000011  49.69999695
C    10.21000004  13.00000000  50.70999908
C     8.78000069  12.98999977  50.48999786
C     7.79999971  13.55000019  51.38999939
C     6.51000023  13.83999920  51.00000000
C     6.09000015  13.43999958  49.68000031
C     6.97000027  12.86999893  48.81000137
C     8.30000019  12.74000072  49.15999985
C    12.51999950  12.35999966  49.81999969
C    13.10999966  11.92999935  48.57999802
C    14.47000027  11.54999924  48.54999924
C     4.72000027  13.73999977  49.23999786
H     4.49322414  13.51322365  48.19824600
H     8.73000050  12.15999985  47.21000290
H    10.59000015  13.45000076  51.62000275
H     8.17000008  14.06999969  52.27000427
H     5.84999990  14.46000004  51.60999680
H     6.70000029  12.69999981  47.77000046
H    14.94999981  11.26999950  47.62000275
H     4.57999992  14.81999969  49.38000107
H     4.00999975  13.19000053  49.86999893
