96

S    12.28000069  16.45000076  44.31000137
C     9.65999985  16.97000122  45.05000305
C    10.84000015  16.28999901  45.31000137
C    11.14999962  15.60999966  46.52999878
C    10.15999985  15.46000004  47.43999863
C     8.89000034  16.00000000  47.12999725
C     7.78999996  15.80000019  48.01000214
C     6.47000027  16.31000137  47.70999908
C     6.26999950  17.13000107  46.58000183
C     7.37999964  17.45000076  45.84000015
C     8.64999962  16.84000015  46.02000427
C    12.56999969  15.48999977  46.70000076
C    13.28999996  15.93999958  45.61000061
C    14.68999958  16.02000046  45.65999985
C     4.85000038  17.59000015  46.22000122
H     4.36531210  16.89234352  45.53702927
H     9.48999977  17.60000038  44.19000244
H    10.29999924  14.77000046  48.27000046
H     7.96999979  15.26000023  48.94000244
H     5.65999985  15.98000050  48.36000061
H     7.31999969  18.01000023  44.91000366
H    15.24000072  16.25000000  44.75000000
H     4.23000002  17.76000023  47.11000061
H     4.94999981  18.53000069  45.65999985
S    15.67999935  14.27999973  49.02000046
C    18.36000061  14.29999924  48.47999954
C    17.12000084  14.67000008  48.11000061
C    16.82999992  15.36999893  46.90999985
C    17.82999992  15.59999943  46.00000000
C    19.11999893  15.07999992  46.22000122
C    20.12000084  15.18000031  45.27000046
C    21.40999985  14.86999989  45.56999969
C    21.71999931  14.23999977  46.81999969
C    20.76000023  14.06999969  47.81999969
C    19.42000008  14.47999954  47.57999802
C    15.38000011  15.62999916  46.79999924
C    14.65000057  15.10000038  47.88000107
C    13.27999973  14.98999977  47.84999847
C    23.23999786  13.86000061  47.09999847
H    23.59644890  14.31241798  48.02539825
H    18.56999969  13.71000099  49.36999893
H    17.64000130  16.14999962  45.07999802
H    19.86999893  15.67999935  44.34000015
H    22.13999939  14.98999977  44.78000259
H    20.98999977  13.55999947  48.75000000
H    12.79999924  14.37000084  48.59000397
H    23.78000069  14.19000053  46.20999908
H    23.25000000  12.76999950  47.22000122
S    11.90999985  16.06999969  50.81999969
C     9.36999989  16.51000023  51.65000153
C    10.57999992  16.25000000  52.04999924
C    10.98000050  15.98000050  53.40999985
C     9.94999981  15.93999958  54.36999893
C     8.67999935  16.38000107  53.99000168
C     7.60999966  16.38000107  54.95999908
C     6.32999992  16.65999985  54.55999756
C     6.07999992  17.13999939  53.25000000
C     7.07000017  17.10000038  52.30999756
C     8.39999962  16.69000053  52.61000061
C    12.41000080  15.64000034  53.47999954
C    13.02999973  15.71000004  52.15999985
C    14.47000027  15.62999916  52.12999725
C     4.61000013  17.48999977  52.93000031
H     4.28217602  17.04561615  51.99023819
H     9.25000000  16.72000122  50.59000015
H    10.13000011  15.48999977  55.34000015
H     7.76000023  16.01000023  55.97000122
H     5.50000000  16.63999939  55.25000000
H     6.88000011  17.38000107  51.26999664
H    15.00000000  15.88999939  51.22000122
H     3.82999992  17.25000000  53.66000366
H     4.55000019  18.56999969  52.76000214
S    15.52999973  15.00000000  55.94999695
C    18.22999954  14.56999969  55.20999908
C    16.93000031  14.93000031  54.88999939
C    16.57999992  15.27999973  53.57999802
C    17.61000061  15.50000000  52.63999939
C    18.94000053  15.13000011  52.98999786
C    19.88000107  15.05000019  51.98999786
C    21.15999985  14.70999908  52.29999924
C    21.52000046  14.32999992  53.59000397
C    20.56999969  14.27999973  54.56999969
C    19.26000023  14.67000008  54.29999924
C    15.11999989  15.29000092  53.23999786
C    14.50000000  15.25000000  54.52000046
C    13.15999985  15.36999893  54.66999817
C    22.90999985  14.01999950  53.96999741
H    23.05868912  14.39526367  54.98250198
H    18.38999939  14.06999969  56.17000198
H    17.21999931  15.65999985  51.63999939
H    19.67000008  15.17000008  50.93000031
H    21.80999947  14.68999958  51.42000198
H    20.81000137  13.89000034  55.56000137
H    12.74000072  15.26999950  55.65999985
H    23.57000160  14.52999973  53.25000000
H    23.16999817  12.97000027  53.77999878
