96

S    12.46999931  16.73999977  44.62999725
C     9.86999989  17.12000084  45.45000076
C    11.10000038  16.61999893  45.72000122
C    11.39000034  16.09000015  47.01000214
C    10.36999893  15.92000008  47.94000244
C     9.00000000  16.22999954  47.63000107
C     7.90999985  16.07999992  48.53000259
C     6.63999987  16.55999947  48.18000031
C     6.47000027  17.22999954  46.95000076
C     7.57000017  17.42000008  46.07999802
C     8.82999992  16.92000008  46.38000107
C    12.84000015  15.88000107  47.11999893
C    13.53000069  16.28999901  45.97000122
C    14.94999981  16.21999931  45.90999985
C     5.03999996  17.76000023  46.56999969
H     4.68635798  17.37099266  45.61516571
H     9.52000046  17.43999863  44.47000122
H    10.62000084  15.52000046  48.92000198
H     8.10000038  15.57999992  49.47000122
H     5.78000021  16.54000092  48.83999634
H     7.42999983  18.00000000  45.17000198
H    15.59000015  16.31999969  45.04000092
H     4.50000000  17.28999901  47.39999771
H     4.90000010  18.85000038  46.59000015
S    16.04999924  14.93000031  49.59000015
C    18.60999870  14.52000046  48.80000305
C    17.34000015  14.88000011  48.40000153
C    16.98999977  15.36000061  47.11000061
C    17.97000122  15.36000061  46.11000061
C    19.19000053  14.82999992  46.50000000
C    20.35000038  14.89999962  45.65000153
C    21.61999893  14.39000034  45.91999817
C    21.90999985  13.96000004  47.25000000
C    20.88999939  14.02999973  48.15999985
C    19.55999947  14.44000053  47.83000183
C    15.64000034  15.81999969  47.02000046
C    14.98000050  15.47000027  48.22999954
C    13.59000015  15.52999973  48.27000046
C    23.26000023  13.48999977  47.61000061
H    23.60416031  13.84164238  48.58262634
H    18.94000053  14.30999947  49.80999756
H    17.90999985  15.85999966  45.14999771
H    20.00000000  15.26999950  44.68999863
H    22.39000130  14.40999985  45.14999771
H    21.09999847  13.81999969  49.20000076
H    13.12000084  15.18000031  49.18000031
H    23.95999908  13.66000080  46.77999878
H    23.15000153  12.39999962  47.58999634
S    15.57000065  12.42000008  52.43999863
C    18.22999954  11.75000000  51.72999954
C    16.87000084  11.82999992  51.38000107
C    16.42000008  11.56999969  50.04000092
C    17.34000015  11.02000046  49.16999817
C    18.67000008  10.97000027  49.45000076
C    19.62000084  10.52000046  48.50999832
C    20.90999985  10.34999943  48.85000229
C    21.32999802  10.57999992  50.13999939
C    20.48000145  11.05000019  51.12999725
C    19.13999939  11.26000023  50.80999756
C    14.98000050  11.80999947  49.88999939
C    14.47000027  12.32999992  51.10000229
C    13.15000057  12.79999924  51.18999863
C    22.80999947  10.29999924  50.38000107
H    23.21567917  10.74693394  51.28762054
H    18.57999992  12.05000019  52.70999908
H    17.04000092  10.78999996  48.15000153
H    19.34000015  10.24000072  47.50000000
H    21.61999893  10.10000038  48.06999969
H    20.73999786  10.98999977  52.18000031
H    12.82999992  13.30000019  52.09999847
H    22.98999977   9.22000027  50.31999969
H    23.38999939  10.69000053  49.54000092
S    11.56000042  12.15999985  47.67000198
C     8.97999954  12.69000053  48.47000122
C    10.29999924  12.61999989  48.75000000
C    10.82999992  12.86999893  50.00999832
C     9.98999977  13.22999954  51.07999802
C     8.56999969  13.31999969  50.79999924
C     7.63999987  13.85000038  51.77999878
C     6.30999994  13.99000072  51.46999741
C     5.84999990  13.61999989  50.20999908
C     6.71000004  13.15000057  49.26000214
C     8.10000038  13.02999973  49.50000000
C    12.28999996  12.61000061  50.10000229
C    12.79999924  12.15000057  48.88000107
C    14.11999893  11.67000008  48.82999802
C     4.42999983  13.90999985  49.86999893
H     4.24857569  13.66577435  48.82331848
H     8.56000042  12.53999901  47.48000336
H    10.44000053  13.56999969  52.01000214
H     8.01999950  14.09000015  52.77000046
H     5.65000010  14.45000076  52.21000290
H     6.38999987  12.96000004  48.23999786
H    14.47000027  11.21000099  47.90999985
H     4.30999994  14.98000050  50.05000305
H     3.72000003  13.45000076  50.56999969
