96

S    12.20999908  16.97000122  44.15999985
C     9.55999947  17.32999992  44.98000336
C    10.86999989  16.88999939  45.30000305
C    11.19999981  16.32999992  46.56000137
C    10.19999981  16.09000015  47.45999908
C     8.85999966  16.46000099  47.19999695
C     7.77999973  16.46999931  48.18999863
C     6.51999998  16.80999947  47.91999817
C     6.19999981  17.34000015  46.68000031
C     7.17000008  17.52000046  45.76000214
C     8.55000019  17.10000038  45.94999695
C    12.64000034  16.17000008  46.60999680
C    13.38000107  16.56999969  45.40999985
C    14.72000027  16.54000092  45.40000153
C     4.79999971  17.68000031  46.35000229
H     4.45983028  17.15557098  45.45705414
H     9.30999947  17.71999931  44.00000000
H    10.43000031  15.67999935  48.43999863
H     7.96999979  15.98999977  49.15000153
H     5.78999996  16.64999962  48.70999908
H     6.94000006  18.02999878  44.82999802
H    15.26000023  16.72999954  44.47999954
H     4.15999985  17.40999985  47.19999695
H     4.78999996  18.77000046  46.18999863
S    15.65999985  15.44999981  49.13999939
C    18.38000107  15.14000034  48.44999695
C    17.09000015  15.53999996  48.18999863
C    16.72000122  15.98000050  46.88999939
C    17.71999931  15.98999977  45.94999695
C    19.05999947  15.71000004  46.17000198
C    20.00999832  15.44999981  45.11000061
C    21.22999954  14.81999969  45.44000244
C    21.61000061  14.59000015  46.79999924
C    20.62999916  14.61999989  47.81000137
C    19.36000061  15.14000034  47.48000336
C    15.34000015  16.15999985  46.62000275
C    14.61999989  15.80999947  47.76000214
C    13.28999996  15.75000000  47.74000168
C    23.03999901  14.14999962  47.11000061
H    23.21167564  14.23583794  48.18296814
H    18.60999870  14.75999928  49.45000076
H    17.39999962  16.13000107  44.93000031
H    19.72999954  15.60999966  44.08000183
H    21.91999817  14.55999947  44.64000320
H    20.81000137  14.22999954  48.81000137
H    12.71999931  15.62999916  48.64999771
H    23.77000046  14.73999977  46.55000305
H    23.16999817  13.12000084  46.75000000
S    11.98999977  17.18000031  51.02000427
C     9.35999966  17.45000076  51.70000076
C    10.60999966  16.95999908  52.09000015
C    10.93999958  16.51000023  53.37999725
C     9.88000011  16.54000092  54.31999969
C     8.59000015  17.02999878  53.90999603
C     7.50999975  16.98999977  54.87999725
C     6.28000021  17.34000015  54.52999878
C     6.00000000  17.95999908  53.27000046
C     7.04999971  17.94999886  52.36999893
C     8.34000015  17.56999969  52.67000198
C    12.44999981  16.42000008  53.53000259
C    13.07999992  16.72000122  52.29000092
C    14.50000000  16.77999878  52.18000031
C     4.61000013  18.34000015  52.83000183
H     4.33050156  17.81508827  51.91651917
H     9.13999939  17.69000053  50.65999985
H    10.08999920  16.38000107  55.37000275
H     7.72000027  16.65999985  55.89000320
H     5.51999998  17.10000038  55.27000046
H     6.98000002  18.22000122  51.31999969
H    14.93999958  17.11000061  51.25000000
H     3.78999996  18.11000061  53.52000427
H     4.67000008  19.43000031  52.76000214
S    15.62999916  15.53999996  55.84999847
C    18.26000023  15.36999893  55.02999878
C    16.98999977  15.67000008  54.75999832
C    16.61000061  16.06999969  53.44999695
C    17.51000023  16.13999939  52.39999771
C    18.89999962  15.82999992  52.67000198
C    19.90999985  15.75000000  51.69000244
C    21.21000099  15.26999950  52.00000000
C    21.48999977  14.85999966  53.34000015
C    20.52000046  14.89999962  54.26000214
C    19.22000122  15.38000011  54.05000305
C    15.19000053  16.34000015  53.31999969
C    14.51000023  16.02000046  54.54999924
C    13.17000008  16.11999893  54.65999985
C    22.88000107  14.46000004  53.67000198
H    23.17302895  14.87861252  54.63280869
H    18.61999893  15.11999989  56.02000427
H    17.19000053  16.40999985  51.39999771
H    19.63000107  16.02000046  50.66999817
H    21.94000053  15.19000053  51.19999695
H    20.78000069  14.57999992  55.27000046
H    12.69999981  16.10999870  55.63999939
H    23.47999954  14.85999966  52.84999847
H    22.95000076  13.36999989  53.61999893
