96

S    12.43999958  16.36000061  44.00000000
C     9.72999954  16.51000023  44.68000031
C    11.05000019  16.13999939  45.02999878
C    11.36000061  15.51000023  46.24000168
C    10.31000042  15.31999969  47.16999817
C     9.04999924  15.76000023  46.83000183
C     8.05000019  15.80999947  47.85999680
C     6.75000000  16.36000061  47.54000092
C     6.39999962  16.87999916  46.26999664
C     7.40000010  16.90999985  45.31000137
C     8.71999931  16.31999969  45.56999969
C    12.84000015  15.34999943  46.45000076
C    13.55000019  15.80999947  45.27999878
C    14.88000011  15.76000023  45.18000031
C     4.96000004  17.27000046  45.90000153
H     4.50724983  16.67387962  45.10768890
H     9.55999947  17.02999878  43.74000168
H    10.55999947  14.82999992  48.11000061
H     8.28999996  15.51000023  48.87000275
H     6.07999992  16.36000061  48.40000153
H     7.17999983  17.26000023  44.29999924
H    15.25000000  16.03999901  44.20000076
H     4.25000000  17.20999908  46.72999954
H     4.98000002  18.34000015  45.65999985
S    16.04999924  14.51000023  48.88000107
C    18.71999931  14.11999893  48.06000137
C    17.43000031  14.55000019  47.75000000
C    17.12000084  15.10000038  46.44000244
C    18.15000153  15.22999954  45.50000000
C    19.48999977  14.88000011  45.81999969
C    20.65999985  15.10000038  44.97000122
C    21.94000053  14.65999985  45.26000214
C    22.17000008  14.18000031  46.55000305
C    21.14000130  13.92000008  47.45999908
C    19.76000023  14.25000000  47.11999893
C    15.65000057  15.31000042  46.32999802
C    14.96000099  15.01999950  47.56999969
C    13.55000019  15.06999969  47.56000137
C    23.61000061  13.92000008  46.98999786
H    23.87367058  14.54987907  47.83960342
H    19.04000092  13.73999977  49.02999878
H    17.90999985  15.71000004  44.55999756
H    20.48999977  15.67000008  44.06999969
H    22.79999924  14.85000038  44.61999893
H    21.40999985  13.43999958  48.40000153
H    13.02999973  14.82999992  48.48999786
H    24.23999977  14.14999962  46.12999725
H    23.68999863  12.86999893  47.31999969
S    11.94000053  16.28000069  50.59999847
C     9.27999973  16.88999939  51.49000168
C    10.54999924  16.39999962  51.77999878
C    10.95999908  15.92000008  53.04000092
C     9.94999981  15.73999977  53.96999741
C     8.63000011  16.27000046  53.79000092
C     7.57999992  16.13000107  54.78000259
C     6.26999950  16.62999916  54.52999878
C     5.98999977  17.20999908  53.30999756
C     7.00999975  17.36999893  52.30999756
C     8.30000019  16.88999939  52.52999878
C    12.43000031  15.82999992  53.18999863
C    13.14000034  16.05999947  51.90999985
C    14.47999954  16.21000099  51.81000137
C     4.61999989  17.61000061  52.90000153
H     4.22720623  16.89455414  52.17753983
H     9.09000015  17.10000038  50.44000244
H    10.06000042  15.21999931  54.92000198
H     7.75000000  15.55999947  55.68999863
H     5.42000008  16.42000008  55.15999603
H     6.76000023  17.61999893  51.27999878
H    14.98999977  16.48999977  50.90000153
H     3.97000027  17.64000130  53.77999878
H     4.74000025  18.63000107  52.52999878
S    15.67000008  15.36999893  55.51000214
C    18.19000053  14.80999947  54.82999802
C    17.00000000  15.26999950  54.38999939
C    16.63999939  15.57000065  53.04999924
C    17.64000130  15.53999996  52.11999893
C    18.95000076  15.14999962  52.45999908
C    19.96000099  15.01000023  51.49000168
C    21.27000046  14.86999989  51.93000031
C    21.54000092  14.51000023  53.26000214
C    20.52999878  14.34999943  54.16999817
C    19.22999954  14.80999947  53.88000107
C    15.21999931  15.82999992  52.97999954
C    14.55999947  15.57000065  54.20000076
C    13.15000057  15.53999996  54.38999939
C    22.98999977  14.42999935  53.66000366
H    23.19084549  14.74165726  54.68500519
H    18.36000061  14.25000000  55.75000000
H    17.50000000  15.78999996  51.06999969
H    19.69000053  15.15999985  50.45000076
H    22.10000038  14.98000050  51.24000168
H    20.69999886  14.09000015  55.20999908
H    12.61999989  15.31999969  55.31000137
H    23.50000000  15.14999962  53.00000000
H    23.34000015  13.40000057  53.52000427
