96

S    12.28999996  16.31999969  44.23999786
C     9.59000015  16.73999977  44.98000336
C    10.86999989  16.28999901  45.33000183
C    11.25000000  15.90000057  46.69000244
C    10.32999992  15.80000019  47.65999603
C     8.97000027  16.13999939  47.30999756
C     8.01000023  15.97000027  48.33000183
C     6.67999983  16.36000061  48.13000107
C     6.30999994  16.90000153  46.86000061
C     7.25000000  17.11000061  45.86000061
C     8.61999989  16.62999916  45.98999786
C    12.61000061  15.65000057  46.79999924
C    13.30999947  15.78999996  45.59999847
C    14.70000076  15.86999989  45.56000137
C     4.94999981  17.47999954  46.50000000
H     4.49727345  16.95762253  45.65723038
H     9.31999969  17.09000015  43.97999573
H    10.65000057  15.27999973  48.55999756
H     8.36999989  15.52999973  49.26000214
H     6.01000023  16.36999893  48.99000168
H     6.98000002  17.56999969  44.91000366
H    15.25000000  16.23999977  44.69999695
H     4.39000034  17.35999870  47.43999863
H     5.05000019  18.55999947  46.31999969
S    15.73999977  14.65999985  49.15999985
C    18.51000023  14.60999966  48.61000061
C    17.20999908  14.93000031  48.20000076
C    16.90000153  15.51000023  46.88999939
C    17.87999916  15.52000046  45.94999695
C    19.19000053  15.07999992  46.32999802
C    20.22000122  15.03000069  45.31000137
C    21.52000046  14.78999996  45.66999817
C    21.93000031  14.46000004  47.02000046
C    20.92000008  14.39000034  47.98999786
C    19.52999878  14.57999992  47.64999771
C    15.44000053  15.60999966  46.70000076
C    14.68999958  15.21000004  47.81000137
C    13.34000015  15.32999992  47.90000153
C    23.42000008  14.06000042  47.37999725
H    23.78096008  14.48725986  48.31554794
H    18.71000099  14.32000065  49.64000320
H    17.64999962  15.77999973  44.92000198
H    19.88999939  15.31999969  44.31999969
H    22.21999931  14.75999928  44.84000397
H    21.07999992  14.04000092  49.01000214
H    12.93000031  15.29000092  48.89999771
H    23.94000053  14.40000057  46.47999573
H    23.46999931  12.97000027  47.50000000
S    15.84000015  12.35000038  52.29000092
C    18.48999977  11.61999893  51.59000015
C    17.15999985  11.67000008  51.31000137
C    16.63999939  11.31000042  50.05000305
C    17.47999954  10.84000015  49.09000015
C    18.89999962  10.90000057  49.34999847
C    19.85000038  10.52999973  48.34999847
C    21.15999985  10.47999954  48.64999771
C    21.61999893  10.77000046  49.95999908
C    20.78000069  11.21000099  50.89000320
C    19.40999985  11.18999958  50.61999893
C    15.21000004  11.59999943  49.85000229
C    14.68000031  12.27000046  50.94999695
C    13.34000015  12.60000038  51.09000397
C    23.05999947  10.44999981  50.25000000
H    23.47249794  10.84152222  51.17986679
H    18.85000038  12.11999989  52.49000168
H    17.10000038  10.57999992  48.11000061
H    19.54000092  10.25000000  47.35000229
H    21.76000214  10.08999920  47.81999969
H    21.11999893  11.44999981  51.90000153
H    12.92000008  13.07999992  51.97000122
H    23.22000122   9.35999966  50.28999710
H    23.65999985  10.82999992  49.40999985
S    11.80999947  11.39000034  47.52999878
C     9.15999985  11.82999992  48.46000290
C    10.53999996  11.90000057  48.68999863
C    11.03999996  12.51999950  49.88999939
C    10.19000053  12.93000031  50.79999924
C     8.78999996  13.00000000  50.51000214
C     7.88999987  13.56999969  51.44000244
C     6.57000017  13.68999958  51.09000397
C     6.06999969  13.23999977  49.88999939
C     6.86999989  12.53000069  49.06000137
C     8.28999996  12.46000099  49.31000137
C    12.48000050  12.42000008  49.98000336
C    13.04999924  11.89000034  48.75999832
C    14.34000015  11.46000004  48.72000122
C     4.72000027  13.69999981  49.40000153
H     4.31112862  13.09708786  48.58918762
H     8.82000065  11.42000008  47.51999664
H    10.55999947  13.32999992  51.73999786
H     8.18000031  14.06999969  52.36000061
H     5.88000011  14.29999924  51.66999817
H     6.57000017  12.25999928  48.06000137
H    14.72000027  11.02000046  47.80000305
H     4.72000027  14.73000050  49.02999878
H     4.09999990  13.68000031  50.28999710
