96

S    12.10999966  16.61999893  44.43999863
C     9.44000053  16.97000122  45.00999832
C    10.64000034  16.40999985  45.38000107
C    10.85000038  15.92000008  46.70000076
C     9.80000019  15.88000107  47.61000061
C     8.56000042  16.42000008  47.21000290
C     7.40000010  16.40999985  48.01000214
C     6.15000010  16.84999847  47.54000092
C     5.97000027  17.38000107  46.19999695
C     7.09000015  17.50000000  45.43000031
C     8.36000061  17.02000046  45.89000320
C    12.30000019  15.80000019  46.95999908
C    13.10999966  16.13999939  45.79999924
C    14.50000000  16.18000031  45.77000046
C     4.61000013  17.80999947  45.63999939
H     4.23367739  17.15867233  44.85116959
H     9.34000015  17.51000023  44.06999969
H     9.92999935  15.65000057  48.66000366
H     7.55999994  16.02000046  49.01000214
H     5.29999971  16.82999992  48.22000122
H     6.94999981  17.95999908  44.45000076
H    15.06000042  16.18000031  44.85000229
H     3.86999989  17.94999886  46.44000244
H     4.76999998  18.79999924  45.20999908
S    15.44000053  14.93999958  49.41999817
C    18.02999878  14.34999943  48.56999969
C    16.81999969  14.98000050  48.36999893
C    16.52000046  15.62999916  47.12999725
C    17.45000076  15.62000084  46.13999939
C    18.76000023  15.11000061  46.38000107
C    19.73999977  15.03000069  45.35999680
C    21.09000015  14.81999969  45.68999863
C    21.37000084  14.19999981  46.95000076
C    20.36000061  13.94999981  47.87000275
C    19.06999969  14.45000076  47.61000061
C    15.11000061  15.92000008  47.01000214
C    14.34999943  15.51000023  48.09999847
C    12.97000027  15.38000011  48.11000061
C    22.72999954  13.68000031  47.28000259
H    23.09011078  14.33269787  48.07524109
H    18.15000153  13.78999901  49.48999786
H    17.23999977  16.02000046  45.14999771
H    19.37999916  15.55999947  44.47999954
H    21.81999969  15.15999985  44.95999908
H    20.61000061  13.52000046  48.83999634
H    12.39999962  15.00000000  48.94000244
H    23.38000107  13.67000008  46.39999771
H    22.56999969  12.63000011  47.55000305
S    15.88000107  12.28999996  52.47000122
C    18.51000023  11.77999973  51.66999817
C    17.20999908  11.79999924  51.40999603
C    16.65999985  11.39000034  50.13999939
C    17.56999969  10.84000015  49.22000122
C    19.00000000  10.80000019  49.41999817
C    19.88999939  10.29999924  48.50999832
C    21.18999863  10.06000042  48.83999634
C    21.68999863  10.44000053  50.13999939
C    20.85000038  11.07999992  51.02000427
C    19.43000031  11.21000099  50.68999863
C    15.26000023  11.68000031  50.00000000
C    14.70000076  12.15000057  51.24000168
C    13.40000057  12.56000042  51.24000168
C    23.19999886  10.31000042  50.38999939
H    23.49044418  10.60044575  51.39964294
H    18.89000130  11.98999977  52.65999603
H    17.15999985  10.59000015  48.25000000
H    19.52000046   9.94000053  47.55000305
H    21.93000031   9.53999996  48.23999786
H    21.22999954  11.56999969  51.90999985
H    13.02000046  12.84999943  52.21000290
H    23.45999908   9.25000000  50.27999878
H    23.74000168  10.86999989  49.62999725
S    12.00000000  11.56999969  47.63999939
C     9.32999992  12.27000046  48.30999756
C    10.65999985  12.11999989  48.67000198
C    11.18000031  12.56999969  49.91000366
C    10.29999924  13.02000046  50.80999756
C     8.92000008  13.02999973  50.56000137
C     8.00000000  13.55999947  51.52000046
C     6.70000029  13.82999992  51.18999863
C     6.23000050  13.36999989  49.89999771
C     7.03999996  12.76999950  49.02999878
C     8.43999958  12.68000031  49.27999878
C    12.64999962  12.39999962  50.06999969
C    13.19000053  11.92999935  48.85000229
C    14.48999977  11.49000072  48.85000229
C     4.80999994  13.60999966  49.47000122
H     4.69208002  13.26317596  48.44340134
H     8.93999958  12.02999973  47.31999969
H    10.62000084  13.43000031  51.77000046
H     8.52999973  14.01999950  52.35000229
H     6.01999998  14.40000057  51.79999924
H     6.75000000  12.57999992  48.00000000
H    14.98000050  11.03999996  47.98999786
H     4.65000010  14.68999958  49.52999878
H     4.05000019  13.14000034  50.11000061
