96

S    12.41000080  17.10000038  44.27000046
C     9.75000000  17.15999985  45.07999802
C    11.03999996  16.87999916  45.37000275
C    11.42000008  16.36999893  46.65999985
C    10.48999977  16.27000046  47.68000031
C     9.11999989  16.56999969  47.45999908
C     8.01000023  16.47999954  48.41999817
C     6.70000029  16.80999947  48.02000046
C     6.42000008  17.25000000  46.69000244
C     7.40999985  17.22999954  45.76000214
C     8.78000069  16.97999954  46.05999756
C    12.86000061  16.27000046  46.75000000
C    13.52000046  16.62999916  45.51000214
C    14.93000031  16.44000053  45.38999939
C     4.98000002  17.64000130  46.38999939
H     4.57088804  16.98249817  45.62291336
H     9.47000027  17.28000069  44.02999878
H    10.77000046  15.88000107  48.64999771
H     8.14999962  16.09000015  49.41999817
H     5.91000032  16.77000046  48.75999832
H     7.27999973  17.70000076  44.79999924
H    15.39000034  16.51000023  44.40999985
H     4.46000004  17.52000046  47.35000229
H     4.96000004  18.68000031  46.05999756
S    15.97000027  15.19999981  49.09999847
C    18.53999901  14.68000031  48.31999969
C    17.34000015  15.11999989  47.98999786
C    17.02999878  15.54999924  46.69000244
C    18.00000000  15.53999996  45.70000076
C    19.31999969  15.14999962  46.04999924
C    20.43999863  15.36000061  45.21999741
C    21.68999863  14.81999969  45.61000061
C    21.88999939  14.25000000  46.88999939
C    20.82999992  14.23999977  47.78999710
C    19.55000114  14.65000057  47.35000229
C    15.62999916  15.95999908  46.51000214
C    15.00000000  15.77000046  47.78999710
C    13.63000011  16.01000023  47.93000031
C    23.22999954  13.81999969  47.35000229
H    23.55981064  14.27886868  48.28207779
H    18.81000137  14.39000034  49.33000183
H    17.82999992  15.90000057  44.68000031
H    20.28000069  15.85000038  44.26000214
H    22.53999901  14.93999958  44.94999695
H    20.97999954  13.97999954  48.82999802
H    13.12000084  15.77000046  48.86000061
H    24.00000000  14.06999969  46.60999680
H    23.25000000  12.72999954  47.47000122
S    11.97000027  16.87000084  51.11999893
C     9.38000011  17.34000015  51.72000122
C    10.55999947  16.84999847  52.08000183
C    10.80000019  16.43000031  53.41999817
C     9.72000027  16.43000031  54.29000092
C     8.45000076  16.90000153  53.96999741
C     7.36000013  16.88999939  54.88999939
C     6.06999969  17.19000053  54.43000031
C     5.98000002  17.73999977  53.13000107
C     6.97000027  17.86999893  52.23999786
C     8.27000046  17.40999985  52.61000061
C    12.20000076  16.38000107  53.68999863
C    12.97000027  16.65999985  52.56000137
C    14.34000015  16.61999893  52.50999832
C     4.61000013  18.11000061  52.72999573
H     4.25376797  17.33341408  52.05315781
H     9.27999973  17.72999954  50.70999908
H     9.94000053  16.21999931  55.33000183
H     7.53000021  16.50000000  55.89000320
H     5.14999962  16.82999992  54.86999893
H     6.63000011  18.15000153  51.25000000
H    14.88000011  16.87000084  51.59999847
H     4.02999973  18.15000153  53.66000366
H     4.69999981  19.13999939  52.37999725
S    15.39999962  15.71000004  56.25000000
C    18.06999969  15.08999920  55.44000244
C    16.79999924  15.62000084  55.13000107
C    16.44000053  16.10000038  53.79000092
C    17.42000008  16.11999893  52.83000183
C    18.73999977  15.62999916  53.13999939
C    19.70999908  15.59000015  52.04000092
C    21.02000046  15.21000004  52.25000000
C    21.37000084  14.73999977  53.54999924
C    20.40999985  14.65999985  54.59999847
C    19.05999947  15.14999962  54.41999817
C    15.01999950  16.32999992  53.66000366
C    14.28999996  16.13000107  54.92000198
C    12.88000011  16.11999893  54.93999863
C    22.76000023  14.48999977  53.83999634
H    22.96563339  14.78781319  54.86816025
H    18.26000023  14.68999958  56.44000244
H    17.23999977  16.36000061  51.79000092
H    19.47999954  15.90000057  51.02000427
H    21.76000214  15.19000053  51.45000076
H    20.79000092  14.28999996  55.54999924
H    12.30000019  16.10000038  55.84999847
H    23.45000076  15.00000000  53.15999985
H    22.86999893  13.40000057  53.73000336
