96

S    12.11999989  16.61999893  44.26000214
C     9.48000050  17.20000076  45.00999832
C    10.67999935  16.59000015  45.34999847
C    11.00999928  16.21999931  46.65000153
C     9.94000053  15.98999977  47.51999664
C     8.69000053  16.53000069  47.23999786
C     7.67000008  16.39999962  48.16999817
C     6.39999962  16.77000046  47.84000015
C     6.11999989  17.46999931  46.60999680
C     7.11000013  17.69000053  45.68000031
C     8.42000008  17.21999931  45.98999786
C    12.44999981  16.14999962  46.88000107
C    13.19000053  16.35000038  45.63999939
C    14.59000015  16.38000107  45.65000153
C     4.69999981  17.78000069  46.22000122
H     4.45205832  17.31953812  45.26365280
H     9.26000023  17.53999901  44.00000000
H    10.01000023  15.51000023  48.50000000
H     7.83999968  15.95999908  49.15000153
H     5.65999985  16.54000092  48.60000229
H     6.98000002  18.09999847  44.68000031
H    15.08999920  16.55999947  44.69999695
H     3.96000004  17.56000137  47.00000000
H     4.67999983  18.86999893  46.14999771
S    15.62000084  15.18000031  49.25000000
C    18.30999947  14.73999977  48.53000259
C    17.00000000  15.13000011  48.16999817
C    16.68000031  15.69000053  46.90999985
C    17.76000023  15.76000023  45.97000122
C    19.04999924  15.31000042  46.30000305
C    20.10000038  15.39999962  45.31999969
C    21.35999870  14.93000031  45.61999893
C    21.60000038  14.52999973  46.97000122
C    20.65000153  14.42000008  47.95000076
C    19.32999992  14.78999996  47.63000107
C    15.26000023  16.02000046  46.77999878
C    14.53999996  15.72999954  47.97000122
C    13.15000057  15.76000023  47.98999786
C    23.05999947  14.02999973  47.29000092
H    23.49571037  14.54301357  48.14736557
H    18.55999947  14.37000084  49.52000046
H    17.65999985  16.22999954  45.00000000
H    19.85000038  15.67000008  44.29000092
H    22.11999893  14.89999962  44.84000397
H    20.90999985  14.04000092  48.94000244
H    12.57999992  15.29999924  48.79000092
H    23.61000061  14.01000023  46.33999634
H    23.06999969  12.94999981  47.49000168
S    16.14999962  12.44999981  52.28000259
C    18.72999954  11.69999981  51.39999771
C    17.42000008  11.82999992  51.13999939
C    16.84000015  11.49000072  49.85000229
C    17.67000008  10.93000031  48.88999939
C    19.05999947  10.97000027  49.12000275
C    20.02000046  10.59000015  48.11000061
C    21.35999870  10.54999924  48.29999924
C    21.87999916  10.98999977  49.56999969
C    21.01000023  11.39000034  50.52999878
C    19.60000038  11.44999981  50.35999680
C    15.40999985  11.82000065  49.75999832
C    14.91000080  12.34000015  50.93000031
C    13.55999947  12.86000061  50.98999786
C    23.29999924  10.69000053  49.88999939
H    23.58159447  11.02087498  50.88966370
H    19.04000092  11.69000053  52.43999863
H    17.18000031  10.51000023  48.02000046
H    19.55000114  10.26000023  47.18999863
H    21.97000122  10.11000061  47.52999878
H    21.28000069  11.72000027  51.52999878
H    13.15000057  13.28999996  51.88999939
H    23.50000000   9.61000061  49.80999756
H    23.78999901  11.11999989  49.00000000
S    12.05999947  11.85999966  47.43999863
C     9.42000008  12.46000099  48.37999725
C    10.77999973  12.46999931  48.62999725
C    11.31999969  12.93000031  49.80999756
C    10.47000027  13.43999958  50.79999924
C     9.06000042  13.38000107  50.61999893
C     8.11999989  14.00000000  51.45999908
C     6.75000000  14.11999893  51.17000198
C     6.28000021  13.53999996  49.92000198
C     7.14999962  13.07999992  48.99000168
C     8.53999996  12.94999981  49.31999969
C    12.76000023  12.65999985  49.89999771
C    13.31999969  12.07999992  48.68000031
C    14.63999939  11.69000053  48.64999771
C     4.79999971  13.81999969  49.56999969
H     4.58035707  13.52950478  48.54264069
H     9.01000023  12.20999908  47.41000366
H    10.88000107  13.80000019  51.73999786
H     8.64000034  14.42999935  52.30999756
H     6.05000019  14.80000019  51.63999939
H     6.84000015  13.02999973  47.95000076
H    15.13000011  11.43000031  47.71999741
H     4.44999981  14.82999992  49.82999802
H     4.28000021  13.07000065  50.18000031
