96

S    12.23999977  16.11999893  44.52999878
C     9.71000004  16.84000015  45.26000214
C    10.90999985  16.36999893  45.63999939
C    11.21999931  16.03999901  46.98999786
C    10.26000023  16.13999939  47.97999954
C     8.92000008  16.57999992  47.61000061
C     7.79999971  16.54000092  48.48999786
C     6.52999973  16.87999916  48.11999893
C     6.32000017  17.45000076  46.81999969
C     7.40000010  17.46000099  45.93999863
C     8.67999935  17.01000023  46.29000092
C    12.65999985  15.67000008  47.11000061
C    13.36999989  15.76000023  45.90999985
C    14.73999977  15.75000000  45.84999847
C     5.01999950  17.93000031  46.37000275
H     4.62740088  17.23594093  45.62686920
H     9.51000023  17.17000008  44.23999786
H    10.39999962  15.54999924  48.88000107
H     7.90000010  16.04999924  49.45999908
H     5.78000021  16.60000038  48.85000229
H     7.27999973  17.79000092  44.91000366
H    15.11000061  15.85000038  44.82999802
H     4.34999990  18.02999878  47.22999954
H     5.14999962  18.96000099  46.02000427
S    15.86999989  15.38000011  49.50000000
C    18.68000031  15.22999954  48.76999664
C    17.32999992  15.42000008  48.39000320
C    17.00000000  15.62000084  47.02999878
C    17.98999977  15.57999992  46.04000092
C    19.37000084  15.38000011  46.45000076
C    20.39999962  15.10000038  45.48999786
C    21.63000107  14.52000046  45.86000061
C    21.96000099  14.50000000  47.25000000
C    21.02000046  14.80999947  48.16999817
C    19.70000076  15.17000008  47.80000305
C    15.50000000  15.67999935  46.93000031
C    14.84000015  15.57999992  48.15000153
C    13.42000008  15.65000057  48.26000214
C    23.38000107  13.99000072  47.74000168
H    23.58219147  14.34383297  48.75095367
H    18.90999985  14.93000031  49.79000092
H    17.73999977  15.72000027  44.99000168
H    20.06000137  15.01999950  44.45999908
H    22.29000092  14.19000053  45.06000137
H    21.18999863  14.73000050  49.23999786
H    12.93000031  15.59000015  49.22000122
H    24.14999962  14.45000076  47.09999847
H    23.64999962  12.93000031  47.63000107
S    16.31999969  12.35999966  52.63000107
C    18.94000053  11.85999966  51.93000031
C    17.61999893  11.96000004  51.56000137
C    17.15999985  11.72000027  50.20999908
C    18.09000015  11.38000011  49.26000214
C    19.47999954  11.35000038  49.54000092
C    20.38999939  10.88999939  48.54999924
C    21.71999931  10.67999935  48.95000076
C    22.18000031  11.06999969  50.26000214
C    21.25999832  11.49000072  51.22000122
C    19.90999985  11.54000092  50.91999817
C    15.76000023  11.84999943  50.08999634
C    15.14999962  12.28999996  51.27999878
C    13.83999920  12.69000053  51.35000229
C    23.61999893  10.67999935  50.68000031
H    23.84397125  10.95147896  51.71161652
H    19.23999977  12.00000000  52.95999908
H    17.75000000  11.19999981  48.23999786
H    19.95000076  10.52999973  47.63000107
H    22.34999847  10.06000042  48.30999756
H    21.61999893  11.43000031  52.25000000
H    13.32999992  12.98999977  52.25999832
H    23.77000046   9.59000015  50.65000153
H    24.27000046  11.18999958  49.95999908
S    12.36999989  11.82000065  47.71999741
C     9.67000008  12.05000019  48.68999863
C    11.03000069  12.09000015  48.93000031
C    11.57999992  12.63000011  50.14999771
C    10.65000057  13.00000000  51.07999802
C     9.23999977  13.00000000  50.89000320
C     8.42000008  13.69999981  51.79000092
C     7.13999987  13.80000019  51.53999710
C     6.57999992  13.28999996  50.31999969
C     7.36000013  12.69999981  49.40000153
C     8.71000004  12.56000042  49.65999985
C    13.07000065  12.53000069  50.20000076
C    13.63000011  12.05000019  48.95999908
C    14.98999977  11.68000031  48.89999771
C     5.17000008  13.48999977  50.02999878
H     4.96519232  13.38076878  48.96500015
H     9.42000008  11.69999981  47.69000244
H    11.05999947  13.47000027  51.97000122
H     8.88000011  14.34999943  52.52999878
H     6.57000017  14.51000023  52.11999893
H     7.03000021  12.38000011  48.40999985
H    15.34999943  11.26000023  47.95999908
H     4.88000011  14.48999977  50.37000275
H     4.55999994  12.76999950  50.58000183
