96

S    12.01000023  16.13999939  44.22000122
C     9.39999962  16.77999878  44.95999908
C    10.60999966  16.39999962  45.33000183
C    10.95000076  16.20000076  46.65999985
C     9.98999977  16.39000130  47.57999802
C     8.59000015  16.60000038  47.29000092
C     7.49000025  16.69000053  48.20999908
C     6.28999996  17.22999954  47.84999847
C     6.10000038  17.53000069  46.47999573
C     7.07000017  17.30999947  45.59999847
C     8.36999989  16.90999985  45.94999695
C    12.41000080  15.88999939  46.79000092
C    13.07999992  15.88000107  45.52999878
C    14.42000008  15.77000046  45.38000107
C     4.71000004  17.87999916  45.97000122
H     4.47224045  17.43245316  45.00497818
H     9.10000038  17.02000046  43.94000244
H    10.27999973  16.20000076  48.61000061
H     7.59000015  16.21999931  49.19000244
H     5.50000000  17.13000107  48.57999802
H     6.94000006  17.61000061  44.55999756
H    14.78000069  15.80999947  44.36000061
H     4.01999998  17.53999901  46.76000214
H     4.56999969  18.96999931  45.93000031
S    15.62999916  15.26000023  49.13999939
C    18.30999947  15.07999992  48.36999893
C    17.00000000  15.40999985  48.02999878
C    16.60000038  15.52999973  46.65999985
C    17.56000137  15.54999924  45.65999985
C    18.86999893  15.32999992  45.93999863
C    19.88999939  15.38000011  44.95999908
C    21.14999962  14.98999977  45.22999573
C    21.63999939  14.61999989  46.50000000
C    20.69000053  14.63000107  47.56999969
C    19.31999969  14.98000050  47.30999756
C    15.18000031  15.67000008  46.56000137
C    14.52999973  15.52999973  47.81000137
C    13.17000008  15.60999966  47.93000031
C    23.05999947  14.21000004  46.72000122
H    23.40887260  14.54491711  47.69684219
H    18.38999939  14.61999989  49.36000061
H    17.31999969  15.86999989  44.65000153
H    19.47000122  15.60999966  43.97999573
H    21.94999886  15.00000000  44.50000000
H    21.07999992  14.32000065  48.54000092
H    12.71000004  15.29000092  48.86000061
H    23.69999886  14.70999908  45.97000122
H    23.29000092  13.14000034  46.66999817
S    12.05999947  16.79000092  50.90999985
C     9.28999996  16.93000031  51.59000015
C    10.57999992  16.61999893  51.93000031
C    10.90999985  16.18000031  53.20999908
C     9.94000053  16.06999969  54.18000031
C     8.59000015  16.38000107  53.88000107
C     7.62000036  16.57999992  54.86000061
C     6.37000036  17.06999969  54.52999878
C     6.02999973  17.56999969  53.20999908
C     6.94000006  17.34000015  52.22000122
C     8.25000000  16.86000061  52.51999664
C    12.36999989  16.04999924  53.39000320
C    13.12999916  16.31999969  52.27000427
C    14.50000000  16.42000008  52.27000427
C     4.63000011  17.95999908  52.84999847
H     4.21447372  17.45850182  51.97596359
H     9.03999996  17.43000031  50.65000153
H    10.21999931  16.00000000  55.21999741
H     7.92999983  16.29999924  55.86000061
H     5.71000004  17.09000015  55.38000107
H     6.71999979  17.46000099  51.16000366
H    15.08999920  16.62999916  51.38999939
H     3.98999977  17.64000130  53.68999863
H     4.56999969  19.04000092  52.65999603
S    15.47000027  15.36000061  56.04000092
C    18.12000084  15.01000023  55.37000275
C    16.92000008  15.54999924  55.04000092
C    16.59000015  16.05999947  53.76999664
C    17.53999901  16.28000069  52.84000015
C    18.85000038  15.86999989  53.20999908
C    19.93000031  15.85999966  52.22000122
C    21.18000031  15.36000061  52.50999832
C    21.38000107  14.65999985  53.68000031
C    20.43999863  14.53999996  54.66999817
C    19.20999908  15.15999985  54.43000031
C    15.19000053  16.11999893  53.52000427
C    14.47000027  15.77999973  54.65999985
C    13.03999996  15.80000019  54.64000320
C    22.79999924  14.32999992  54.10999680
H    23.11186790  14.84741974  55.01725388
H    18.34000015  14.55999947  56.32999802
H    17.36999893  16.61999893  51.81999969
H    19.50000000  16.28999901  51.31000137
H    22.01999855  15.55999947  51.86000061
H    20.71000099  14.17000008  55.65999985
H    12.51999950  15.57999992  55.56999969
H    23.55999947  14.63999939  53.37999725
H    22.89999962  13.23999977  54.18000031
