96

S    12.34000015  16.92000008  44.36999893
C     9.77999973  17.22999954  45.13000107
C    11.02000046  16.67000008  45.38999939
C    11.39000034  16.09000015  46.62000275
C    10.31000042  15.88000107  47.52999878
C     8.97999954  16.18999863  47.23999786
C     7.94000053  16.10999870  48.18000031
C     6.63999987  16.50000000  47.93000031
C     6.37000036  17.10000038  46.70999908
C     7.36999989  17.38999939  45.80999756
C     8.73000050  16.93000031  46.00999832
C    12.81000042  16.01000023  46.81000137
C    13.48999977  16.35000038  45.54999924
C    14.88999939  16.36999893  45.47000122
C     4.94000006  17.59000015  46.43000031
H     4.52708530  17.10010147  45.54818344
H     9.59000015  17.78000069  44.20999908
H    10.60999966  15.40999985  48.46000290
H     8.14999962  15.69000053  49.15000153
H     5.88000011  16.60000038  48.69999695
H     7.23000002  18.07999992  44.98000336
H    15.38000011  16.68000031  44.54999924
H     4.23999977  17.28999901  47.22999954
H     4.90999985  18.68000031  46.38000107
S    16.02000046  15.24000072  49.15000153
C    18.71000099  14.93000031  48.36000061
C    17.39999962  15.29999924  48.06000137
C    17.02999878  15.82999992  46.73999786
C    18.05999947  15.90000057  45.81999969
C    19.44000053  15.52999973  46.05999756
C    20.45999908  15.47999954  45.10000229
C    21.64999962  14.75999928  45.34000015
C    21.87000084  14.27999973  46.65000153
C    21.00000000  14.44000053  47.63000107
C    19.71999931  14.96000099  47.36000061
C    15.62999916  16.10999870  46.63999939
C    14.94999981  15.80999947  47.83000183
C    13.56999969  15.70000076  47.95000076
C    23.21000099  13.75000000  47.11000061
H    23.65159225  14.43692112  47.83196640
H    18.97999954  14.45000076  49.29999924
H    17.86000061  15.98999977  44.75999832
H    20.20999908  15.75000000  44.08000183
H    22.29999924  14.51000023  44.51000214
H    21.15999985  13.92000008  48.57999802
H    13.02999973  15.29999924  48.80000305
H    23.84000015  13.59000015  46.23000336
H    23.12000084  12.76000023  47.56999969
S    15.97000027  12.38999939  52.43000031
C    18.67000008  12.05999947  51.58000183
C    17.35000038  11.96000004  51.31000137
C    16.81999969  11.56999969  49.98000336
C    17.75000000  11.28999901  49.00000000
C    19.14999962  11.39000034  49.19000244
C    20.05000114  10.92000008  48.20999908
C    21.40999985  10.88000107  48.55999756
C    21.86000061  11.31000042  49.85000229
C    21.02999878  11.75000000  50.77000046
C    19.59000015  11.79999924  50.50000000
C    15.34999943  11.82000065  49.93000031
C    14.72000027  12.20000076  51.14999771
C    13.40000057  12.61999989  51.31000137
C    23.32999992  11.10999966  50.17000198
H    23.52614212  11.23608971  51.23476791
H    19.04000092  12.31999969  52.56999969
H    17.36999893  10.90999985  48.06000137
H    19.63999939  10.32999992  47.38999939
H    22.04000092  10.32999992  47.85999680
H    21.28000069  11.96000004  51.81000137
H    13.04999924  12.90999985  52.29000092
H    23.48999977  10.06999969  49.85000229
H    24.01000023  11.79999924  49.65000153
S    12.05000019  11.97000027  47.55000305
C     9.43000031  12.35000038  48.50999832
C    10.77000046  12.38999939  48.73000336
C    11.23999977  12.81999969  50.02999878
C    10.36000061  13.25000000  50.93999863
C     8.98999977  13.20000076  50.75000000
C     8.10999966  13.86000061  51.65999985
C     6.74000025  14.04000092  51.42000198
C     6.24000025  13.63000011  50.12000275
C     7.04999971  12.92000008  49.27000046
C     8.47000027  12.79999924  49.45999908
C    12.65999985  12.56000042  50.15999603
C    13.20000076  12.10999966  48.88000107
C    14.55999947  11.78999996  48.77999878
C     4.81999969  13.80000019  49.65000153
H     4.69539356  13.36021233  48.66047668
H     9.01000023  12.15999985  47.52999878
H    10.75000000  13.73000050  51.83000183
H     8.63000011  14.30999947  52.49000168
H     6.05000019  14.61999989  52.02999878
H     6.61999989  12.69000053  48.29999924
H    15.00000000  11.46000004  47.84000015
H     4.53999996  14.85999966  49.69999695
H     4.17000008  13.27999973  50.37000275
