96

S    12.28999996  16.76000023  44.45999908
C     9.72000027  17.12000084  45.12000275
C    10.98000050  16.79000092  45.52999878
C    11.36999989  16.46000099  46.84999847
C    10.36999893  16.29999924  47.71999741
C     9.02000046  16.60000038  47.42000198
C     7.92999983  16.50000000  48.34000015
C     6.65000010  16.77999878  47.95000076
C     6.34999990  17.28999901  46.60999680
C     7.37999964  17.30999947  45.72000122
C     8.71999931  17.00000000  46.02000427
C    12.77999973  16.23999977  46.90999985
C    13.48000050  16.54000092  45.75000000
C    14.80999947  16.39999962  45.54000092
C     4.97000027  17.56999969  46.11000061
H     4.63867331  16.84710503  45.36451721
H     9.53999996  17.38000107  44.08000183
H    10.62999916  15.92000008  48.69999695
H     8.11999989  16.07999992  49.31999969
H     5.82999992  16.72000122  48.66000366
H     7.28999996  17.77000046  44.72999954
H    15.14000034  16.46999931  44.51000214
H     4.17000008  17.73999977  46.84999847
H     4.97000027  18.57999992  45.68000031
S    16.00000000  15.26999950  49.13999939
C    18.63000107  14.75999928  48.46000290
C    17.35000038  15.24000072  48.08000183
C    17.02000046  15.85999966  46.79999924
C    18.04000092  16.02000046  45.84999847
C    19.34000015  15.48999977  46.17000198
C    20.45000076  15.51000023  45.15999603
C    21.70999908  15.05000019  45.45000076
C    21.97000122  14.55999947  46.75000000
C    20.92000008  14.28999996  47.62000275
C    19.59000015  14.85000038  47.43000031
C    15.59999943  16.09000015  46.68000031
C    14.93000031  15.77999973  47.90999985
C    13.53999996  15.85999966  48.01000214
C    23.31999969  14.09999943  47.18999863
H    23.48742676  14.34750175  48.23823929
H    18.78000069  14.34000015  49.45000076
H    17.81999969  16.38000107  44.85000229
H    20.13000107  15.90999985  44.20000076
H    22.53999901  15.21000004  44.77000427
H    21.09000015  13.78999901  48.56999969
H    13.12000084  15.46000004  48.93000031
H    24.10000038  14.47000027  46.51000214
H    23.31999969  13.00000000  47.18000031
S    12.15000057  17.21999931  50.97999954
C     9.48999977  17.39999962  51.58000183
C    10.71000004  16.90000153  51.91999817
C    11.03000069  16.31000137  53.16999817
C     9.98999977  16.25000000  54.10999680
C     8.73000050  16.69999886  53.82999802
C     7.67000008  16.67000008  54.80999756
C     6.38999987  17.11000061  54.41999817
C     6.17999983  17.65999985  53.13999939
C     7.23000002  17.80999947  52.30999756
C     8.47999954  17.22999954  52.55000305
C    12.46000099  16.32999992  53.43999863
C    13.20000076  16.64999962  52.28000259
C    14.61999989  16.67000008  52.25999832
C     4.76000023  18.09000015  52.78999710
H     4.23836231  17.40623283  52.12033081
H     9.34000015  18.05999947  50.72999954
H    10.26000023  16.04999924  55.14999771
H     7.88000011  16.21999931  55.77999878
H     5.60999966  17.00000000  55.15999603
H     7.13999987  18.38999939  51.39999771
H    15.15999985  16.97000122  51.37000275
H     4.28000021  18.25000000  53.75999832
H     4.94999981  19.04000092  52.28000259
S    15.44000053  15.14000034  55.84000015
C    18.22999954  14.92000008  55.22999573
C    16.97999954  15.40999985  54.89999771
C    16.67000008  15.97000027  53.63999939
C    17.61999893  15.97000027  52.65999603
C    18.95000076  15.46000004  52.93000031
C    19.89999962  15.39999962  51.88999939
C    21.18000031  14.86999989  52.16999817
C    21.45999908  14.22999954  53.40000153
C    20.45000076  14.22000027  54.38999939
C    19.22999954  14.91000080  54.20999908
C    15.26999950  16.21000099  53.47000122
C    14.47000027  15.80000019  54.54000092
C    13.07999992  15.97000027  54.59000015
C    22.88000107  13.96999931  53.77999878
H    23.15106773  14.36946678  54.75726318
H    18.38000107  14.32999992  56.12999725
H    17.40999985  16.18000031  51.60999680
H    19.59000015  15.80999947  50.93999863
H    22.01000023  15.15999985  51.53999710
H    20.76000023  14.04000092  55.41999817
H    12.51000023  15.67000008  55.47000122
H    23.52999878  14.45000076  53.02999878
H    23.13999939  12.90999985  53.77999878
