96

S    12.13000107  16.34000015  44.43000031
C     9.51000023  16.72999954  45.19000244
C    10.77999973  16.32999992  45.51000214
C    11.10000038  15.90999985  46.79000092
C    10.19000053  15.90000057  47.81999969
C     8.85000038  16.34000015  47.51999664
C     7.79999971  16.35000038  48.48999786
C     6.48999977  16.56999969  48.13999939
C     6.14000034  16.97000122  46.79000092
C     7.16000032  17.05000114  45.90000153
C     8.50000000  16.70999908  46.18999863
C    12.50000000  15.67999935  46.90000153
C    13.21000004  16.00000000  45.70000076
C    14.60999966  15.98999977  45.56000137
C     4.72000027  17.35999870  46.39999771
H     4.40746307  16.78580475  45.52780533
H     9.26000023  17.14999962  44.22000122
H    10.32999992  15.31999969  48.72000122
H     7.97999954  15.97000027  49.48999786
H     5.75999975  16.52000046  48.94000244
H     6.94999981  17.35000038  44.86999893
H    15.14999962  16.21999931  44.65000153
H     4.07000017  17.28999901  47.28000259
H     4.82999992  18.43000031  46.18999863
S    15.76000023  15.06999969  49.22000122
C    18.38999939  14.77000046  48.63999939
C    17.18000031  15.11000061  48.20999908
C    16.79000092  15.42000008  46.81000137
C    17.79000092  15.51000023  45.91999817
C    19.11999893  15.18000031  46.29000092
C    20.20000076  15.19000053  45.40000153
C    21.42000008  14.63000107  45.68000031
C    21.64999962  14.13000011  46.97999954
C    20.69999886  14.22999954  47.95999908
C    19.38999939  14.68000031  47.63000107
C    15.31000042  15.57999992  46.70999908
C    14.61999989  15.26999950  47.90000153
C    13.25000000  15.19999981  47.97999954
C    23.02000046  13.81000042  47.43000031
H    23.41603088  14.30683804  48.31567001
H    18.65999985  14.34999943  49.61000061
H    17.51000023  15.69000053  44.87999725
H    20.03000069  15.59999943  44.40000153
H    22.11000061  14.94999981  44.89999771
H    20.86999893  13.90999985  48.99000168
H    12.74000072  14.70999908  48.81000137
H    23.65999985  13.96999931  46.55000305
H    23.05000114  12.74000072  47.63000107
S    16.36000061  12.20000076  52.44999695
C    19.01000023  11.75000000  51.56000137
C    17.65999985  11.65999985  51.32999802
C    17.17000008  11.13000011  50.13999939
C    18.07999992  10.64000034  49.16999817
C    19.48999977  10.80000019  49.38999939
C    20.48000145  10.29999924  48.43999863
C    21.80999947  10.21999931  48.67000198
C    22.26000023  10.76000023  49.99000168
C    21.35999870  11.33999920  50.87999725
C    20.00000000  11.32999992  50.65000153
C    15.77000046  11.25000000  50.06999969
C    15.19999981  11.78999996  51.25000000
C    13.89999962  12.20999908  51.26999664
C    23.65999985  10.46000004  50.40000153
H    23.94555283  10.98113537  51.31377411
H    19.42000008  12.07999992  52.50999832
H    17.71999931  10.10000038  48.29999924
H    19.98999977   9.78999996  47.61000061
H    22.39000130   9.55999947  48.02999878
H    21.63000107  11.73999977  51.84999847
H    13.53999996  12.63000011  52.21000290
H    23.72999954   9.38000011  50.61999893
H    24.36000061  10.55999947  49.55999756
S    12.32999992  11.28000069  47.70000076
C     9.81999969  12.23999977  48.40000153
C    11.16000080  12.09000015  48.68000031
C    11.64000034  12.41000080  49.95999908
C    10.77000046  12.89000034  50.90999985
C     9.38000011  12.98999977  50.68999863
C     8.48999977  13.35999966  51.70999908
C     7.14999962  13.48999977  51.45999908
C     6.69000053  13.20000076  50.13000107
C     7.50000000  12.81000042  49.10999680
C     8.92000008  12.69999981  49.36000061
C    13.12000084  12.10999966  50.12000275
C    13.63999939  11.51000023  48.96999741
C    14.94999981  11.02000046  48.95999908
C     5.19999981  13.43000031  49.89999771
H     4.94278049  13.00844669  48.92828369
H     9.44999981  12.02999973  47.39999771
H    11.21000099  12.88000011  51.90000153
H     8.84000015  13.45000076  52.72999573
H     6.39999962  13.61999989  52.22999954
H     7.16000032  12.63000011  48.09000015
H    15.36000061  10.52000046  48.09000015
H     5.13999987  14.52999973  49.86000061
H     4.55000019  13.10999966  50.72000122
