96

S    12.20000076  16.84999847  44.27999878
C     9.61999989  17.23999977  45.14999771
C    10.90999985  16.77999878  45.34999847
C    11.30000019  16.31999969  46.66999817
C    10.36000061  16.13999939  47.65999603
C     9.03999996  16.61000061  47.44999695
C     7.99000025  16.46000099  48.43000031
C     6.69000053  16.84000015  48.16999817
C     6.32999992  17.34000015  46.88000107
C     7.34000015  17.54999924  46.00000000
C     8.67999935  17.12000084  46.19999695
C    12.71999931  16.14999962  46.72999954
C    13.38999939  16.35000038  45.56999969
C    14.78000069  16.28999901  45.48999786
C     4.81999969  17.50000000  46.56000137
H     4.52196026  17.43762016  45.51339722
H     9.40999985  17.70000076  44.19000244
H    10.77000046  15.69000053  48.55999756
H     8.27000046  16.03999901  49.38999939
H     6.01000023  16.76000023  49.02000046
H     7.04999971  17.94000053  45.02999878
H    15.34999943  16.46999931  44.58000183
H     4.21999979  16.82999992  47.19999695
H     4.55000019  18.47999954  46.97999954
S    15.93000031  15.25000000  49.20000076
C    18.60999870  14.89999962  48.40999985
C    17.28000069  15.25000000  48.09999847
C    16.93000031  15.76000023  46.81000137
C    17.88999939  15.78999996  45.80999756
C    19.26000023  15.44999981  46.04000092
C    20.27000046  15.65000057  45.06000137
C    21.60000038  15.34999943  45.37000275
C    21.90999985  14.93999958  46.68000031
C    20.98999977  14.88000011  47.65999603
C    19.63000107  15.03999901  47.38999939
C    15.54999924  16.09000015  46.65999985
C    14.86999989  15.84000015  47.85999680
C    13.40999985  15.78999996  47.91999817
C    23.39999962  14.73999977  47.00000000
H    23.74741936  15.39229679  47.80119324
H    18.90999985  14.55999947  49.40000153
H    17.79999924  16.18000031  44.79999924
H    20.07999802  16.06999969  44.06999969
H    22.39999962  15.53999996  44.65999985
H    21.31999969  14.73999977  48.68999863
H    12.88000011  15.29000092  48.73000336
H    23.98999977  14.93999958  46.09000397
H    23.45999908  13.67000008  47.23999786
S    12.05000019  17.14999962  50.90000153
C     9.43000031  17.53000069  51.59999847
C    10.67000008  17.10000038  51.93999863
C    11.00000000  16.55999947  53.22000122
C    10.01000023  16.17000008  54.09000015
C     8.67000008  16.46999931  53.72000122
C     7.63000011  16.46999931  54.72999954
C     6.39999962  17.23999977  54.45999908
C     6.11000013  17.79000092  53.26000214
C     7.07999992  17.69000053  52.25000000
C     8.36999989  17.17000008  52.47000122
C    12.43000031  16.44000053  53.40000153
C    13.15000057  16.69000053  52.19999695
C    14.52999973  16.60000038  52.18000031
C     4.80999994  18.39999962  53.02000046
H     4.43012333  18.00605392  52.07734299
H     9.19999981  18.12999916  50.72000122
H    10.22999954  15.85999966  55.11000061
H     7.73000002  15.97000027  55.68999863
H     5.64000034  17.26000023  55.24000168
H     7.09999990  18.12000084  51.25000000
H    15.03000069  16.87000084  51.25999832
H     4.19000006  18.00000000  53.82999802
H     4.92999983  19.48999977  53.08000183
S    15.57999992  15.72999954  55.89000320
C    18.29000092  15.48999977  55.17000198
C    17.01000023  15.86999989  54.88999939
C    16.63999939  16.20000076  53.55999756
C    17.59000015  16.14999962  52.51999664
C    18.98999977  15.95000076  52.87000275
C    19.90999985  16.01000023  51.79999924
C    21.18000031  15.72999954  52.08000183
C    21.50000000  15.21999931  53.41999817
C    20.62999916  15.05000019  54.47000122
C    19.31999969  15.59999943  54.20000076
C    15.19999981  16.29999924  53.39000320
C    14.50000000  15.95999908  54.54000092
C    13.12999916  16.05999947  54.56999969
C    22.88000107  14.77000046  53.73000336
H    23.04293251  15.03661919  54.77425766
H    18.51000023  14.89999962  56.05999756
H    17.31999969  16.15999985  51.46999741
H    19.59000015  16.32999992  50.80999756
H    21.91999817  15.85999966  51.29000092
H    20.89999962  14.61999989  55.41999817
H    12.61999989  15.88000107  55.51000214
H    23.57999992  15.21000004  53.01000214
H    22.96999931  13.68000031  53.61000061
