96

S    12.60000038  16.86000061  44.23999786
C     9.82999992  16.93000031  44.92000198
C    11.16000080  16.61000061  45.28999710
C    11.49000072  16.14999962  46.56999969
C    10.47000027  15.98000050  47.49000168
C     9.15000057  16.34000015  47.21000290
C     8.01999950  16.17000008  48.06000137
C     6.84999990  16.77000046  47.80000305
C     6.44999981  17.28000069  46.52999878
C     7.50000000  17.32999992  45.63999939
C     8.85000038  16.87000084  45.87999725
C    12.88000011  15.95000076  46.73999786
C    13.66000080  16.23999977  45.56999969
C    15.03999901  16.18000031  45.50000000
C     4.99000025  17.53999901  46.22000122
H     4.74571896  17.00832939  45.30035400
H     9.67000008  17.45000076  43.96999741
H    10.71000004  15.59999943  48.47999954
H     8.13000011  15.52999973  48.93000031
H     6.05000019  16.51000023  48.48999786
H     7.26000023  17.69000053  44.64000320
H    15.60999966  16.77000046  44.79000092
H     4.36999989  17.26000023  47.06999969
H     4.90000010  18.61999893  46.03000259
S    15.93000031  14.75999928  49.06000137
C    18.63999939  14.48999977  48.52000427
C    17.36999893  14.84000015  48.11000061
C    17.15999985  15.46000004  46.86000061
C    18.22999954  15.51000023  45.97000122
C    19.52000046  15.01999950  46.29000092
C    20.59000015  15.03999901  45.34999847
C    21.87000084  14.70999908  45.70999908
C    22.06999969  14.19999981  46.97999954
C    21.11000061  14.21000004  47.93000031
C    19.73999977  14.57999992  47.63999939
C    15.69000053  15.65999985  46.62000275
C    14.93000031  15.34000015  47.75000000
C    13.50999928  15.43000031  47.83000183
C    23.42000008  13.78999901  47.43000031
H    23.65219879  14.29793262  48.36605072
H    18.64999962  14.01000023  49.50000000
H    18.06999969  15.85000038  44.94999695
H    20.30999947  15.25000000  44.31999969
H    22.56999969  14.59000015  44.88999939
H    21.31999969  13.75000000  48.88999939
H    12.94999981  15.01999950  48.66000366
H    24.05999947  14.14999962  46.60999680
H    23.59999847  12.71999931  47.52999878
S    16.10999870  12.50000000  52.31999969
C    18.68999863  11.77000046  51.63000107
C    17.35000038  11.77000046  51.30000305
C    16.86000061  11.39999962  50.00999832
C    17.70000076  10.93999958  49.06999969
C    19.06999969  10.90999985  49.31999969
C    20.02000046  10.40999985  48.36000061
C    21.38000107  10.47999954  48.59000397
C    21.90000153  10.93999958  49.79999924
C    20.95000076  11.31999969  50.79000092
C    19.52000046  11.28999901  50.65000153
C    15.43000031  11.72999954  49.86999893
C    14.89999962  12.34000015  51.06999969
C    13.55999947  12.64999962  51.18000031
C    23.36000061  10.69000053  50.14999771
H    23.60593987  10.96404743  51.17591858
H    19.00000000  12.17000008  52.58999634
H    17.34000015  10.59000015  48.11000061
H    19.57999992  10.01000023  47.44999695
H    22.06000137   9.84000015  48.02999878
H    21.28000069  11.71000004  51.75000000
H    13.12999916  13.09000015  52.08000183
H    23.46999931   9.59999943  50.06999969
H    23.97999954  11.28999901  49.47999954
S    12.05999947  11.44999981  47.64999771
C     9.48999977  12.22000027  48.33000183
C    10.81999969  12.13999939  48.63999939
C    11.26000023  12.60000038  49.93000031
C    10.34999943  13.05999947  50.89000320
C     8.97000027  13.12999916  50.58000183
C     7.95000029  13.60999966  51.53999710
C     6.65000010  13.78000069  51.17000198
C     6.25000000  13.28999996  49.93999863
C     7.17999983  12.71000004  49.03999710
C     8.56000042  12.65999985  49.26000214
C    12.69999981  12.41000080  50.04000092
C    13.27000046  11.84999943  48.85000229
C    14.60999966  11.46999931  48.80000305
C     4.84000015  13.50999928  49.52999878
H     4.61848497  13.37847519  48.47087860
H     9.19999981  11.67000008  47.43999863
H    10.69000053  13.31999969  51.88999939
H     8.25000000  13.86999989  52.55000305
H     5.88000011  14.27999973  51.73999786
H     6.81999969  12.38999939  48.06999969
H    14.88999939  10.84000015  47.95999908
H     4.61000013  14.56999969  49.65999985
H     4.15000010  12.90999985  50.14999771
