96

S    12.48999977  16.59000015  44.18000031
C     9.96000004  16.97999954  44.89999771
C    11.11999989  16.31000137  45.13999939
C    11.43000031  15.65999985  46.36000061
C    10.52000046  15.67000008  47.37999725
C     9.23999977  16.27000046  47.18999863
C     8.23000050  16.31000137  48.15999985
C     6.93000031  16.76000023  47.81999969
C     6.65000010  17.30999947  46.59000015
C     7.65999985  17.31999969  45.68999863
C     8.96000004  16.93000031  45.93999863
C    12.84999943  15.38000011  46.52000046
C    13.59000015  15.88000107  45.41999817
C    14.96000099  16.00000000  45.43000031
C     5.23000002  17.71999931  46.23000336
H     4.84616947  17.08269691  45.43337250
H     9.82999992  17.43999863  43.92000198
H    10.82999992  15.29999924  48.34999847
H     8.51000023  15.90999985  49.13000107
H     6.17000008  16.64999962  48.57999802
H     7.55000019  17.61000061  44.64000320
H    15.51000023  16.42000008  44.59000015
H     4.56999969  17.72999954  47.11000061
H     5.23999977  18.75000000  45.83000183
S    15.98000050  14.75000000  49.03999710
C    18.70000076  14.60000038  48.40999985
C    17.46000099  15.01000023  48.06999969
C    17.12000084  15.60999966  46.79000092
C    18.11000061  15.71000004  45.81999969
C    19.37000084  15.26000023  46.11000061
C    20.38000107  15.27999973  45.13999939
C    21.64999962  14.84000015  45.38000107
C    22.03000069  14.44000053  46.72000122
C    21.02999878  14.27000046  47.68000031
C    19.64999962  14.68999958  47.36999893
C    15.65000057  15.53999996  46.56999969
C    14.92000008  15.18000031  47.75000000
C    13.55000019  15.08999920  47.74000168
C    23.43000031  14.11999893  47.09000015
H    23.68710899  14.46744347  48.09063721
H    18.81999969  13.86000061  49.20000076
H    17.86999893  15.76000023  44.75999832
H    20.17000008  15.62000084  44.13000107
H    22.42000198  14.84000015  44.61000061
H    21.31999969  13.71999931  48.56999969
H    12.96000004  15.03999901  48.64999771
H    24.20000076  14.50000000  46.39999771
H    23.51000023  13.02000046  47.02000046
S    11.87999916  16.28000069  50.86000061
C     9.39000034  17.15999985  51.77999878
C    10.60999966  16.57999992  52.09000015
C    10.97000027  16.14999962  53.43000031
C    10.07999992  16.29999924  54.47999954
C     8.71000004  16.72000122  54.16999817
C     7.69000006  16.81999969  55.11000061
C     6.46000004  17.32999992  54.75999832
C     6.11999989  17.68000031  53.40999985
C     7.11999989  17.57999992  52.50000000
C     8.40999985  17.15999985  52.78999710
C    12.38000011  15.88999939  53.44999695
C    13.01000023  15.90999985  52.14000320
C    14.40999985  15.86999989  52.06999969
C     4.67000008  17.94000053  53.02000046
H     4.42449951  17.53564644  52.03799820
H     9.13000011  17.51000023  50.77999878
H    10.36999893  16.55999947  55.50000000
H     7.86999989  16.52000046  56.13999939
H     5.60999966  17.18000031  55.41999817
H     7.00000000  17.84000015  51.45000076
H    14.98999977  16.18999863  51.19999695
H     3.93000007  17.53000069  53.72000122
H     4.48000002  19.03000069  53.06999969
S    15.71000004  15.40999985  55.84000015
C    18.26000023  15.11999989  55.15999603
C    17.02999878  15.43000031  54.75000000
C    16.60000038  15.75000000  53.39000320
C    17.61999893  15.85000038  52.43999863
C    18.97999954  15.55999947  52.77000046
C    19.93999863  15.44999981  51.77000046
C    21.21999931  15.08999920  52.15999985
C    21.54000092  14.60999966  53.40000153
C    20.58000183  14.53999996  54.40999985
C    19.27000046  15.14000034  54.13999939
C    15.18000031  15.71000004  53.25000000
C    14.53999996  15.72999954  54.51000214
C    13.17000008  15.77000046  54.59000015
C    22.86999893  13.97999954  53.76999664
H    23.29942703  14.43089867  54.66463852
H    18.47999954  14.47999954  56.00999832
H    17.28000069  16.06999969  51.43000031
H    19.65999985  15.60999966  50.72999954
H    22.01000023  15.11000061  51.42000198
H    20.88000107  14.07999992  55.34999847
H    12.69000053  15.70000076  55.56000137
H    23.45999908  14.06000042  52.84999847
H    22.63999939  12.92000008  53.92000198
