96

S    12.32999992  16.54999924  44.34999847
C     9.63999939  16.94000053  44.99000168
C    10.88000107  16.47999954  45.34000015
C    11.16000080  16.02000046  46.70999908
C    10.18000031  15.95000076  47.63000107
C     8.96000004  16.46000099  47.31999969
C     7.90000010  16.28000069  48.22000122
C     6.63999987  16.59000015  47.88999939
C     6.30000019  17.06999969  46.59999847
C     7.34000015  17.30999947  45.68999863
C     8.65999985  16.92000008  45.98999786
C    12.64999962  15.93000031  46.91999817
C    13.40000057  16.02000046  45.72999954
C    14.78999996  16.15999985  45.65999985
C     4.90999985  17.38999939  46.11999893
H     4.43080330  16.64617157  45.48345184
H     9.35000038  17.27000046  43.99000168
H    10.36000061  15.57000065  48.63999939
H     7.96000004  15.80999947  49.20000076
H     5.86000013  16.47999954  48.63999939
H     7.16000032  17.65999985  44.66999817
H    15.27999973  16.25000000  44.69999695
H     4.34999990  17.67000008  47.02000046
H     4.96000004  18.27000046  45.47000122
S    15.95999908  15.27999973  49.25000000
C    18.64999962  14.96000099  48.36999893
C    17.35999870  15.39000034  48.13000107
C    16.95000076  15.84000015  46.81999969
C    17.94999886  15.97000027  45.83000183
C    19.29999924  15.62999916  46.05999756
C    20.29000092  15.84000015  45.11000061
C    21.60000038  15.48999977  45.40999985
C    21.94999886  15.10000038  46.75000000
C    20.95999908  14.92000008  47.67000198
C    19.63999939  15.11999989  47.35000229
C    15.50000000  15.97000027  46.77000046
C    14.80999947  15.64000034  47.97000122
C    13.40999985  15.67999935  48.06000137
C    23.36999893  14.73000050  47.18999863
H    23.57740784  14.96506119  48.23394775
H    18.89999962  14.65000057  49.38000107
H    17.78000069  16.23999977  44.79000092
H    20.06000137  16.36000061  44.18000031
H    22.34000015  15.46000004  44.61999893
H    21.18000031  14.67000008  48.69999695
H    12.97000027  15.26000023  48.95999908
H    24.21999931  15.19999981  46.70000076
H    23.47999954  13.66000080  46.95999908
S    15.65000057  12.82999992  51.95000076
C    18.30999947  12.02999973  51.40999603
C    16.95000076  12.03999996  51.00000000
C    16.52000046  11.49000072  49.72999954
C    17.47999954  10.97000027  48.85000229
C    18.86000061  11.06999969  49.15000153
C    19.86999893  10.48999977  48.36000061
C    21.24000168  10.57000065  48.69999695
C    21.59000015  11.09000015  49.97000122
C    20.59000015  11.61999893  50.77000046
C    19.19999886  11.54000092  50.45999908
C    15.07999992  11.76000023  49.61000061
C    14.48999977  12.35999966  50.79000092
C    13.15999985  12.60000038  50.86999893
C    23.05000114  11.00999928  50.37000275
H    23.29133987  11.23671246  51.40848923
H    18.68000031  12.43999958  52.34000397
H    17.10000038  10.42000008  47.98999786
H    19.45999908  10.07999992  47.43999863
H    21.98999786  10.21000004  47.98999786
H    20.88000107  11.97999954  51.75000000
H    12.71999931  12.98999977  51.77999878
H    23.29999924   9.96000004  50.15999603
H    23.75999832  11.46999931  49.66999817
S    11.77999973  11.71000004  47.22999954
C     9.09000015  12.10999966  48.11000061
C    10.44000053  12.05000019  48.36000061
C    10.98999977  12.51000023  49.62999725
C    10.14999962  13.01000023  50.59000015
C     8.76000023  13.04999924  50.38000107
C     7.92999983  13.73999977  51.29000092
C     6.63000011  14.01999950  50.94999695
C     6.06999969  13.55000019  49.75999832
C     6.90000010  12.89999962  48.81999969
C     8.25000000  12.65999985  49.09000015
C    12.43000031  12.31999969  49.72000122
C    12.98999977  11.92000008  48.50999832
C    14.35999966  11.61000061  48.47999954
C     4.65000010  13.89999962  49.41999817
H     4.37339020  13.36061096  48.51410294
H     8.76000023  11.94000053  47.09000015
H    10.47000027  13.38999939  51.55000305
H     8.38000011  14.32999992  52.09000015
H     6.05000019  14.51000023  51.72000122
H     6.51000023  12.63000011  47.84000015
H    14.98000050  11.36000061  47.62000275
H     4.53999996  14.96999931  49.22000122
H     3.93000007  13.60999966  50.19000244
