96

S    12.35000038  16.46000099  44.20000076
C     9.73999977  16.92000008  44.97000122
C    10.98999977  16.40999985  45.28999710
C    11.32999992  15.92000008  46.51000214
C    10.29999924  15.77999973  47.43999863
C     9.00000000  16.31999969  47.22000122
C     7.92000008  16.34000015  48.22000122
C     6.65999985  16.90000153  47.95999908
C     6.35999966  17.35999870  46.68000031
C     7.39000034  17.39999962  45.72999954
C     8.69000053  16.79999924  45.93000031
C    12.77999973  15.71000004  46.66999817
C    13.50000000  15.97000027  45.44000244
C    14.85000038  15.81999969  45.35999680
C     4.90999985  17.63000107  46.31000137
H     4.66644287  17.30048180  45.29995346
H     9.52000046  17.28000069  43.96999741
H    10.59999943  15.57000065  48.46000290
H     8.09000015  15.75000000  49.12000275
H     5.86999989  17.01000023  48.68999863
H     7.34000015  17.79000092  44.72000122
H    15.43000031  16.02000046  44.47000122
H     4.15999985  17.21999931  46.98999786
H     4.74000025  18.71000099  46.33999634
S    16.01000023  15.11000061  49.08000183
C    18.60999870  14.96999931  48.36999893
C    17.38999939  15.36000061  48.02999878
C    17.00000000  15.77999973  46.73999786
C    17.95999908  15.97000027  45.77000046
C    19.29000092  15.48999977  46.04000092
C    20.38000107  15.38000011  45.08999634
C    21.68999863  14.96999931  45.41999817
C    21.97000122  14.70999908  46.77999878
C    20.93000031  14.63999939  47.67000198
C    19.63000107  15.01999950  47.36000061
C    15.57000065  15.64000034  46.53999710
C    14.88000011  15.32999992  47.69000244
C    13.48999977  15.38000011  47.80000305
C    23.28000069  14.06999969  47.11999893
H    23.65757179  14.52448368  48.03596115
H    18.96999931  14.73000050  49.36999893
H    17.71000099  16.17000008  44.72999954
H    20.15999985  15.62000084  44.05000305
H    22.36000061  14.59000015  44.65000153
H    21.09000015  14.17000008  48.62999725
H    12.97999954  15.06999969  48.70999908
H    24.00000000  14.28999996  46.31999969
H    23.05999947  13.00000000  47.21000290
S    15.71000004  12.88000011  52.08000183
C    18.30000114  12.17000008  51.31999969
C    16.93000031  12.17000008  51.04999924
C    16.44000053  11.68000031  49.81999969
C    17.35000038  11.28999901  48.83999634
C    18.77000046  11.26999950  49.09999847
C    19.72999954  10.71000004  48.18000031
C    21.05999947  10.57000065  48.55999756
C    21.48999977  10.92000008  49.82999802
C    20.62999916  11.57999992  50.72999954
C    19.27000046  11.68000031  50.38000107
C    15.03999901  12.01000023  49.61000061
C    14.50000000  12.64999962  50.73999786
C    13.07000065  12.94000053  50.84000015
C    22.93000031  10.70000076  50.07999802
H    23.25965881  10.87535191  51.10404587
H    18.57999992  12.56999969  52.29999924
H    16.95000076  11.05999947  47.85999680
H    19.54000092  10.19999981  47.23999786
H    21.71999931  10.03000069  47.88999939
H    20.93000031  11.92999935  51.72000122
H    12.67000008  13.38999939  51.73999786
H    23.23999786   9.68000031  49.81999969
H    23.43000031  11.28000069  49.29000092
S    11.61999893  11.77999973  47.34000397
C     8.89999962  12.30999947  48.18999863
C    10.27999973  12.35000038  48.48999786
C    10.78999996  12.63000011  49.69999695
C     9.89999962  12.98999977  50.73999786
C     8.48999977  12.93000031  50.54000092
C     7.55999994  13.45999908  51.49000168
C     6.25000000  13.68999958  51.18000031
C     5.73000002  13.38999939  49.86000061
C     6.63999987  12.81000042  48.89999771
C     8.01000023  12.63000011  49.20000076
C    12.25000000  12.58999920  49.77000427
C    12.79000092  12.06999969  48.62999725
C    14.19999981  11.73999977  48.44999695
C     4.41000032  13.86000061  49.29000092
H     4.14664173  13.22651672  48.44298172
H     8.53999996  12.02000046  47.19999695
H    10.26000023  13.35999966  51.70000076
H     7.94000053  13.90999985  52.39999771
H     5.69000006  14.27000046  51.90999985
H     6.30000019  12.71000004  47.88000107
H    14.65000057  11.36999989  47.54000092
H     4.44999981  14.89999962  48.96999741
H     3.68000007  13.89999962  50.11000061
