96

S    12.07999992  16.73999977  44.13000107
C     9.47000027  17.14999962  44.93000031
C    10.76000023  16.70999908  45.22999573
C    11.10000038  16.38000107  46.56999969
C    10.11000061  16.46999931  47.52999878
C     8.76000023  16.72999954  47.16999817
C     7.68000031  16.69999886  48.09999847
C     6.44999981  17.10000038  47.80000305
C     6.06999969  17.51000023  46.52000046
C     7.05999947  17.38000107  45.56999969
C     8.39999962  17.09000015  45.86999893
C    12.53000069  16.14999962  46.70999908
C    13.20000076  16.26000023  45.43000031
C    14.53999996  16.31000137  45.35999680
C     4.63000011  17.95999908  46.07999802
H     4.18221807  17.25043869  45.38421631
H     9.34000015  17.51000023  43.90999603
H    10.42000008  16.23999977  48.54000092
H     7.88999987  16.47999954  49.13999939
H     5.69999981  16.93000031  48.56999969
H     6.90999985  17.70000076  44.54000092
H    15.11000061  16.54999924  44.47000122
H     3.98000002  18.12999916  46.93999863
H     4.82999992  18.89000130  45.54000092
S    15.67999935  15.69000053  49.15999985
C    18.35000038  15.31000042  48.40000153
C    17.06999969  15.78999996  48.11999893
C    16.68000031  16.17000008  46.79000092
C    17.56999969  16.07999992  45.76000214
C    18.89999962  15.65999985  46.04999924
C    19.93999863  15.46000004  45.05000305
C    21.21000099  15.03000069  45.47000122
C    21.57999992  14.82999992  46.79000092
C    20.63999939  14.93999958  47.74000168
C    19.29999924  15.29999924  47.41000366
C    15.26000023  16.26000023  46.59000015
C    14.55999947  15.97000027  47.78999710
C    13.15999985  15.98999977  47.88000107
C    23.01000214  14.42000008  47.11000061
H    23.38209152  14.84933567  48.04022598
H    18.78999901  15.01999950  49.34999847
H    17.20000076  16.28000069  44.75999832
H    19.70000076  15.62999916  44.01000214
H    22.01999855  14.98999977  44.75000000
H    20.86000061  14.88999939  48.80000305
H    12.68000031  16.05999947  48.85000229
H    23.74000168  14.73999977  46.35000229
H    23.05999947  13.32999992  47.22999954
S    16.53000069  12.89000034  52.19999695
C    19.06999969  12.53999901  51.40999603
C    17.76000023  12.43000031  51.12999725
C    17.25000000  12.05999947  49.82999802
C    18.11000061  11.46000004  48.92000198
C    19.52999878  11.44999981  49.25000000
C    20.48999977  10.85000038  48.41999817
C    21.77999878  10.80999947  48.75999832
C    22.27999878  11.39999962  49.94999695
C    21.40999985  12.07999992  50.76000214
C    20.02000046  12.15000057  50.50000000
C    15.80999947  12.10999966  49.79999924
C    15.29999924  12.65999985  50.93000031
C    14.01000023  13.17000008  50.93999863
C    23.67000198  10.90999985  50.47000122
H    23.97462082  11.33505249  51.42636871
H    19.37999916  12.90999985  52.37999725
H    17.71000099  10.80999947  48.15000153
H    20.15000153  10.13000011  47.68000031
H    22.39999962  10.15999985  48.15000153
H    21.70000076  12.39999962  51.76000214
H    13.61999989  13.71000099  51.79000092
H    23.59999847   9.81000042  50.45999908
H    24.43000031  11.10999966  49.69999695
S    12.48999977  12.30000019  47.48000336
C     9.86999989  13.02999973  48.20999908
C    11.23999977  13.04999924  48.46000290
C    11.72999954  13.35999966  49.80999756
C    10.82999992  13.57999992  50.80999756
C     9.42000008  13.81999969  50.59000015
C     8.42000008  13.96999931  51.58000183
C     7.09000015  14.04000092  51.29000092
C     6.69000053  13.76000023  49.99000168
C     7.57000017  13.40999985  49.00000000
C     8.94999981  13.48000050  49.23999786
C    13.15999985  13.05999947  49.88999939
C    13.64999962  12.42000008  48.77999878
C    15.01999950  11.95000076  48.68000031
C     5.17000008  13.94999981  49.59999847
H     4.84936428  13.31585217  48.77346802
H     9.44000053  12.69999981  47.27000427
H    11.19999981  13.45000076  51.81999969
H     8.73999977  13.94999981  52.62000275
H     6.32000017  14.22000027  52.04000092
H     7.18999958  13.04999924  48.04999924
H    15.50000000  11.43000031  47.84999847
H     4.97000027  15.01999950  49.43000031
H     4.56999969  13.66000080  50.47000122
