96

S    12.06999969  16.82999992  44.36000061
C     9.39000034  16.90999985  45.17000198
C    10.65999985  16.50000000  45.48999786
C    11.02000046  16.13999939  46.76000214
C    10.06999969  16.03999901  47.69000244
C     8.69000053  16.47999954  47.43000031
C     7.59999990  16.38000107  48.34000015
C     6.34999990  16.73999977  48.01000214
C     6.02999973  17.20999908  46.73999786
C     7.03999996  17.34000015  45.80999756
C     8.38999939  16.95999908  46.10000229
C    12.48000050  15.93999958  46.81000137
C    13.17999935  16.21000099  45.59999847
C    14.56999969  16.18000031  45.61000061
C     4.65999985  17.67000008  46.36000061
H     4.32342434  17.26330376  45.40636826
H     9.22000027  17.14999962  44.12000275
H    10.32999992  15.51000023  48.61000061
H     7.88000011  15.90000057  49.27000046
H     5.56999969  16.59000015  48.75000000
H     6.86999989  17.80999947  44.84000397
H    15.10000038  16.35000038  44.68000031
H     3.94000006  17.43999863  47.15000153
H     4.71000004  18.77000046  46.37000275
S    15.76000023  15.06000042  49.18000031
C    18.42000008  14.98999977  48.30999756
C    17.14999962  15.32999992  48.09999847
C    16.70999908  15.77999973  46.77000046
C    17.68000031  15.98999977  45.84000015
C    19.03000069  15.57999992  46.05999756
C    20.07999802  15.53999996  45.11000061
C    21.38999939  15.34999943  45.38999939
C    21.73999977  14.86999989  46.70999908
C    20.73999786  14.67000008  47.60000229
C    19.42000008  15.03000069  47.29999924
C    15.29999924  15.93999958  46.72999954
C    14.63000107  15.50000000  47.87000275
C    13.26000023  15.54999924  47.94000244
C    23.15000153  14.60999966  47.02000046
H    23.37255287  14.85480690  48.05857468
H    18.71999931  14.53999996  49.25000000
H    17.46000099  16.23999977  44.79999924
H    19.85999870  15.82999992  44.09000015
H    22.15999985  15.39999962  44.61999893
H    20.86999893  14.32000065  48.61999893
H    12.75000000  15.39999962  48.88999939
H    23.69999886  15.19000053  46.26999664
H    23.45000076  13.60000038  46.72999954
S    11.84999943  16.87999916  50.97999954
C     9.15999985  17.22999954  51.76000214
C    10.40999985  16.76000023  52.02999878
C    10.73999977  16.21000099  53.29000092
C     9.85999966  16.29999924  54.31999969
C     8.45000076  16.77999878  54.06999969
C     7.42000008  16.60000038  55.06000137
C     6.11999989  16.80999947  54.65000153
C     5.79999971  17.28000069  53.36999893
C     6.85999966  17.56000137  52.44999695
C     8.15999985  17.26000023  52.77000046
C    12.15000057  16.00000000  53.39000320
C    12.90999985  16.39000130  52.25000000
C    14.25000000  16.43000031  52.22999954
C     4.39000034  17.47999954  52.95000076
H     4.10688925  16.95624542  52.03696823
H     8.86999989  17.65999985  50.80999756
H    10.06000042  15.85000038  55.27999878
H     7.73000002  16.21999931  56.04000092
H     5.32000017  16.51000023  55.33000183
H     6.61000013  17.85000038  51.44000244
H    14.75999928  16.62999916  51.29000092
H     3.68999982  17.25000000  53.75999832
H     4.36999989  18.55999947  52.74000168
S    15.22999954  15.21000004  55.89000320
C    18.04999924  15.08999920  55.24000168
C    16.73999977  15.51000023  54.91000366
C    16.40999985  15.95999908  53.57999802
C    17.39999962  16.10999870  52.63000107
C    18.71999931  15.62000084  53.00000000
C    19.82999992  15.76000023  52.09000015
C    21.12999916  15.47999954  52.38999939
C    21.45999908  15.03999901  53.69999695
C    20.45999908  14.78999996  54.58000183
C    19.10000038  15.19000053  54.34999847
C    15.00000000  16.10000038  53.39000320
C    14.23999977  15.75000000  54.56999969
C    12.84000015  15.77999973  54.59999847
C    22.89999962  14.72000027  53.99000168
H    23.13247108  15.18494320  54.94806290
H    18.25000000  14.65000057  56.20999908
H    17.21999931  16.60000038  51.68000031
H    19.50000000  16.28999901  51.18999863
H    21.87000084  15.76000023  51.65000153
H    20.76000023  14.21000004  55.45000076
H    12.28000069  15.52000046  55.48999786
H    23.61000061  15.01999950  53.20999908
H    22.93000031  13.66000080  54.29000092
