96

S    12.35999966  16.22999954  43.90999603
C     9.76000023  16.63999939  44.73999786
C    11.07999992  16.27000046  45.06000137
C    11.36000061  15.81999969  46.35000229
C    10.39000034  15.75000000  47.31999969
C     9.09000015  16.13000107  47.01000214
C     8.09000015  16.25000000  48.01000214
C     6.84999990  16.90999985  47.67000198
C     6.44999981  17.13999939  46.33999634
C     7.40000010  17.05000114  45.41999817
C     8.73999977  16.62999916  45.68000031
C    12.76999950  15.57999992  46.45999908
C    13.45999908  15.80999947  45.20999908
C    14.82999992  15.64000034  45.10000229
C     5.01999950  17.61999893  46.05999756
H     4.70130777  17.10732079  45.15242004
H     9.52000046  17.10000038  43.77999878
H    10.60999966  15.47000027  48.34999847
H     8.32999992  16.20000076  49.06999969
H     6.30000019  17.46999931  48.41999817
H     7.11999989  17.28999901  44.40000153
H    15.39000034  15.62000084  44.18000031
H     4.32000017  17.43999863  46.88999939
H     5.01999950  18.70000076  45.86999893
S    15.85999966  14.88999939  48.88000107
C    18.53999901  14.29999924  48.27999878
C    17.27000046  14.77000046  47.81999969
C    16.97999954  15.24000072  46.49000168
C    18.04999924  15.29999924  45.61000061
C    19.34000015  14.80999947  45.98999786
C    20.48000145  14.93000031  45.13000107
C    21.73000145  14.61999989  45.51000214
C    21.90000153  13.99000072  46.76000214
C    20.88000107  13.82999992  47.63999939
C    19.61000061  14.34999943  47.35000229
C    15.55999947  15.48999977  46.29000092
C    14.84000015  15.36999893  47.52999878
C    13.45999908  15.32999992  47.65999603
C    23.28000069  13.48000050  47.16999817
H    23.70093346  14.11865902  47.94654846
H    18.65999985  13.81999969  49.25000000
H    17.95999908  15.77999973  44.64000320
H    20.36000061  15.42000008  44.16999817
H    22.60000038  14.96000099  44.97000122
H    21.04999924  13.27999973  48.55999756
H    12.96000004  15.25000000  48.61999893
H    23.88000107  13.48000050  46.25000000
H    23.11000061  12.46000099  47.54000092
S    11.79999924  16.55999947  50.93000031
C     9.21000004  17.10000038  51.83000183
C    10.44999981  16.67000008  52.04999924
C    10.85999966  16.34000015  53.39000320
C     9.81000042  16.23999977  54.36999893
C     8.51000023  16.76000023  54.06000137
C     7.42999983  16.52000046  54.95999908
C     6.11000013  16.75000000  54.51000214
C     5.84000015  17.39999962  53.31999969
C     6.90999985  17.79999924  52.47000122
C     8.23999977  17.28999901  52.75000000
C    12.27000046  16.21999931  53.54000092
C    12.97000027  16.28000069  52.31999969
C    14.37999916  16.04999924  52.23999786
C     4.44000006  17.64999962  52.87000275
H     4.20986795  17.33618355  51.85183716
H     8.89000034  17.47999954  50.86999893
H     9.89999962  15.67000008  55.30000305
H     7.63999987  15.90999985  55.83000183
H     5.25000000  16.40999985  55.07999802
H     6.63999987  18.11000061  51.46999741
H    14.89999962  16.09000015  51.27999878
H     3.74000025  17.21999931  53.60000229
H     4.28999996  18.72999954  52.90999985
S    15.40999985  15.31999969  55.97000122
C    18.04000092  14.65999985  55.30000305
C    16.77000046  15.01999950  54.88999939
C    16.46999931  15.42000008  53.57999802
C    17.48999977  15.34000015  52.63999939
C    18.79999924  14.98999977  52.97000122
C    19.81999969  14.88000011  51.97999954
C    21.05999947  14.53999996  52.28000259
C    21.35000038  14.14000034  53.62999725
C    20.39999962  14.13000011  54.62999725
C    19.09000015  14.59000015  54.34999847
C    15.07999992  15.76000023  53.40000153
C    14.29999924  15.72999954  54.59000015
C    12.97999954  15.93999958  54.72000122
C    22.72999954  13.71000099  54.03999710
H    23.11812973  14.17136097  54.94807434
H    18.27000046  14.29999924  56.30000305
H    17.05999947  15.44999981  51.65000153
H    19.59000015  15.32999992  51.00999832
H    21.86000061  14.78000069  51.59000015
H    20.65999985  13.81000042  55.63000107
H    12.53000069  15.65999985  55.66999817
H    23.32999992  13.96000004  53.15999985
H    22.43999863  12.67000008  54.20000076
