96

S    12.09000015  16.90000153  44.33000183
C     9.35999966  17.50000000  45.15999603
C    10.59999943  16.92000008  45.45000076
C    10.88999939  16.27000046  46.70999908
C     9.92999935  16.18000031  47.70000076
C     8.64000034  16.73999977  47.45999908
C     7.59000015  16.69000053  48.40000153
C     6.39999962  17.19000053  48.16999817
C     6.07999992  17.67000008  46.81000137
C     7.09999990  17.86000061  45.81999969
C     8.39999962  17.40999985  46.13999939
C    12.39999962  16.02000046  46.79000092
C    13.12999916  16.27000046  45.59000015
C    14.52000046  16.17000008  45.61999893
C     4.63000011  17.88999939  46.46999741
H     4.36363173  17.49745750  45.48864365
H     9.15000057  17.94000053  44.19000244
H    10.21999931  15.62000084  48.59000397
H     7.77999973  16.07999992  49.27000046
H     5.63000011  17.10000038  48.92000198
H     6.94000006  18.25000000  44.81999969
H    15.03000069  16.35000038  44.66999817
H     4.00999975  17.59000015  47.32999802
H     4.61999989  18.96999931  46.29000092
S    15.60999966  15.75000000  49.41999817
C    18.22000122  15.10000038  48.75999832
C    17.01000023  15.55999947  48.40000153
C    16.64999962  15.69000053  47.02000046
C    17.68000031  15.52000046  46.03000259
C    18.98999977  15.43000031  46.50000000
C    20.03000069  15.31999969  45.56000137
C    21.30000114  15.07999992  45.98999786
C    21.60000038  14.61999989  47.29999924
C    20.59000015  14.63000107  48.13000107
C    19.29000092  15.03000069  47.80000305
C    15.21000004  15.88000107  46.79999924
C    14.52000046  15.77999973  48.01000214
C    13.12999916  15.84000015  47.98999786
C    22.93000031  14.18000031  47.72999573
H    23.37318611  14.80904007  48.50200272
H    18.30000114  14.70000076  49.77000427
H    17.48999977  15.53999996  44.95999908
H    19.88999939  15.34000015  44.47999954
H    22.03000069  15.11999989  45.19000244
H    20.76999855  14.47000027  49.19000244
H    12.61999989  15.90999985  48.95000076
H    23.65999985  14.14000034  46.90999985
H    22.86000061  13.14000034  48.06000137
S    11.36000061  17.05000114  51.11000061
C     8.78999996  17.34000015  51.90999985
C    10.03000069  16.81999969  52.11999893
C    10.39000034  16.43000031  53.47000122
C     9.42000008  16.38000107  54.40999985
C     8.14000034  16.88999939  54.15999985
C     7.09999990  16.86000061  55.11000061
C     5.77000046  17.23999977  54.78000259
C     5.49000025  17.64000130  53.43999863
C     6.48999977  17.85000038  52.60000229
C     7.76999998  17.35000038  52.85999680
C    11.80999947  16.39999962  53.69999695
C    12.43999958  16.69000053  52.47000122
C    13.80000019  16.62999916  52.35000229
C     4.07000017  17.78000069  52.97000122
H     3.77232456  17.07574272  52.19314194
H     8.57999992  17.65999985  50.90000153
H     9.64999962  15.86999989  55.34000015
H     7.30999994  16.29999924  56.00999832
H     4.98000002  16.98999977  55.48999786
H     6.24000025  18.30999947  51.63999939
H    14.19999981  16.70999908  51.33999634
H     3.40999985  17.80999947  53.85000229
H     3.94000006  18.77000046  52.50999832
S    15.07999992  15.70000076  56.14999771
C    17.59000015  15.42000008  55.34000015
C    16.36999893  15.81999969  55.02999878
C    16.00000000  16.20000076  53.74000168
C    16.97999954  16.17000008  52.76000214
C    18.30000114  15.84000015  53.15000153
C    19.36000061  15.84000015  52.18999863
C    20.68000031  15.57000065  52.48000336
C    20.95000076  15.05000019  53.75000000
C    19.95000076  15.11999989  54.69999695
C    18.61999893  15.39000034  54.40999985
C    14.57999992  16.35000038  53.53000259
C    13.93000031  16.07999992  54.77000427
C    12.53000069  16.04999924  54.85000229
C    22.34999847  14.65000057  54.15000153
H    22.62968636  14.92968750  55.16570282
H    17.81999969  15.10000038  56.36000061
H    16.57999992  16.38000107  51.77000046
H    19.09000015  16.09000015  51.17000198
H    21.44000053  15.65999985  51.70999908
H    20.13999939  14.63999939  55.65999985
H    12.05999947  15.97000027  55.83000183
H    22.96999931  15.05000019  53.34000015
H    22.43000031  13.55999947  54.02999878
