96

S    12.20000076  16.15999985  44.08000183
C     9.52999973  16.38000107  44.73999786
C    10.80999947  15.98999977  45.10000229
C    11.18000031  15.53999996  46.45999908
C    10.19000053  15.67000008  47.43999863
C     8.89999962  16.13000107  47.09999847
C     7.85000038  16.03999901  48.02999878
C     6.60000038  16.53000069  47.67000198
C     6.30000019  16.97000122  46.36000061
C     7.27999973  17.05999947  45.40999985
C     8.52000046  16.46000099  45.70000076
C    12.64000034  15.54999924  46.62000275
C    13.35000038  15.85000038  45.41999817
C    14.78999996  15.86999989  45.35999680
C     4.79999971  17.28999901  45.97000122
H     4.41741371  16.80822372  45.07021332
H     9.35000038  16.90000153  43.80000305
H    10.26000023  15.27999973  48.44999695
H     8.13000011  15.70000076  49.02000046
H     5.84000015  16.46000099  48.43000031
H     7.05999947  17.35000038  44.38000107
H    15.29000092  15.93000031  44.40000153
H     4.09999990  16.98999977  46.77000046
H     4.72000027  18.38000107  45.87999725
S    15.85999966  14.93000031  49.06000137
C    18.38000107  14.06999969  48.11999893
C    17.17000008  14.61999989  47.91999817
C    16.86000061  15.18000031  46.66999817
C    17.79999924  15.31000042  45.66999817
C    19.07999992  14.80999947  45.90000153
C    20.20999908  15.06999969  45.02999878
C    21.50000000  14.63999939  45.38000107
C    21.70999908  13.93000031  46.55000305
C    20.65000153  13.73999977  47.41000366
C    19.37999916  14.17000008  47.11999893
C    15.50000000  15.55999947  46.53999710
C    14.78999996  15.36000061  47.72999573
C    13.40999985  15.31000042  47.75000000
C    23.05000114  13.56999969  47.02000046
H    23.39163971  14.17498779  47.85986710
H    18.52000046  13.59000015  49.09000015
H    17.61999893  15.84000015  44.73999786
H    20.06999969  15.53999996  44.06000137
H    22.39000130  14.81999969  44.79999924
H    20.88000107  13.25000000  48.36000061
H    12.94000053  14.96000099  48.66000366
H    23.72999954  13.40000057  46.18000031
H    22.88000107  12.64000034  47.56999969
S    11.87000084  16.44000053  50.79000092
C     9.19999981  16.84000015  51.59000015
C    10.48999977  16.45000076  51.93999863
C    10.85000038  16.18999863  53.30999756
C     9.84000015  16.04999924  54.29999924
C     8.48999977  16.32999992  53.94000244
C     7.42999983  16.23999977  54.89999771
C     6.15999985  16.56999969  54.56999969
C     5.84999990  17.05000114  53.22000122
C     6.83000040  17.13999939  52.19999695
C     8.15999985  16.73999977  52.52999878
C    12.31999969  16.15999985  53.43000031
C    12.96000004  16.28999901  52.12999725
C    14.37000084  16.31999969  52.06999969
C     4.42999983  17.45000076  52.90000153
H     4.12991476  17.17782974  51.88808823
H     9.02000046  17.22999954  50.59000015
H    10.03000069  15.90000057  55.35999680
H     7.69000006  15.82999992  55.87999725
H     5.49000025  16.32999992  55.38999939
H     6.65000010  17.46999931  51.18000031
H    14.91000080  16.50000000  51.13999939
H     3.75999975  16.90000153  53.56999969
H     4.30000019  18.51000023  53.13000107
S    15.52999973  15.32999992  55.81999969
C    18.06999969  14.68999958  55.05000305
C    16.82999992  15.24000072  54.78000259
C    16.54999924  15.75000000  53.44999695
C    17.56000137  15.88999939  52.45999908
C    18.82999992  15.32999992  52.72999573
C    19.93000031  15.40999985  51.77999878
C    21.18999863  14.96999931  52.05999756
C    21.40999985  14.39000034  53.36999893
C    20.43999863  14.21000004  54.27000046
C    19.07999992  14.68000031  53.97999573
C    15.10000038  15.92000008  53.22000122
C    14.46000004  15.67999935  54.45999908
C    13.07000065  15.85000038  54.51000214
C    22.76000023  13.78000069  53.64999771
H    23.12299728  14.20582390  54.58541489
H    18.39999962  14.30999947  56.00999832
H    17.40999985  16.05999947  51.39999771
H    19.57999992  15.88000107  50.86000061
H    21.98999786  14.98999977  51.32999802
H    20.62999916  13.71000099  55.21999741
H    12.48999977  15.73999977  55.41999817
H    23.40999985  13.90999985  52.77999878
H    22.69000053  12.69000053  53.75000000
