96

S    12.15999985  15.82999992  44.12000275
C     9.63000011  16.40999985  44.87999725
C    10.80000019  15.90000057  45.18000031
C    11.07999992  15.51000023  46.51000214
C    10.11999989  15.50000000  47.51999664
C     8.86999989  16.04999924  47.18000031
C     7.81000042  16.06999969  48.11000061
C     6.51999998  16.57999992  47.85999680
C     6.30999994  16.98999977  46.45999908
C     7.28999996  17.01000023  45.56000137
C     8.61999989  16.55999947  45.86000061
C    12.55000019  15.29999924  46.65999985
C    13.27000046  15.34999943  45.43000031
C    14.65000057  15.31999969  45.41999817
C     4.90999985  17.32999992  45.98999786
H     4.52627087  16.75078583  45.15013885
H     9.40999985  16.59000015  43.81999969
H    10.34999943  15.19999981  48.54000092
H     8.02999973  15.67000008  49.09999847
H     5.65000010  16.52000046  48.50999832
H     7.21000004  17.38000107  44.54999924
H    15.27999973  15.50000000  44.54999924
H     4.23000002  17.26000023  46.84000015
H     4.79999971  18.38000107  45.65999985
S    15.72000027  14.75000000  49.13000107
C    18.31999969  14.50000000  48.60000229
C    17.10000038  14.77000046  48.11000061
C    16.79999924  14.91000080  46.79999924
C    17.79999924  14.88000011  45.90999985
C    19.15999985  14.73999977  46.27999878
C    20.17999840  14.55999947  45.31999969
C    21.42999840  14.25000000  45.70000076
C    21.68000031  13.86000061  47.04000092
C    20.75000000  13.97999954  48.06000137
C    19.43000031  14.39000034  47.67000198
C    15.34000015  15.01000023  46.60999680
C    14.60000038  14.84000015  47.77000046
C    13.25000000  15.08999920  47.85999680
C    23.09000015  13.53999996  47.39999771
H    23.47051048  14.29384136  48.08922577
H    18.43000031  14.09000015  49.59999847
H    17.52000046  14.96999931  44.86000061
H    19.88000107  14.68999958  44.27999878
H    22.22999954  14.15999985  44.97000122
H    21.01000023  13.78999901  49.09000015
H    12.74000072  14.91000080  48.81000137
H    23.74000168  13.43999958  46.52000046
H    23.02000046  12.53999901  47.84999847
S    15.76000023  12.36999989  52.04000092
C    18.39999962  11.76000023  51.32999802
C    17.05999947  11.73999977  51.04999924
C    16.60000038  11.26999950  49.80999756
C    17.48999977  10.84000015  48.85000229
C    18.88000107  10.84000015  49.13000107
C    19.80999947  10.25000000  48.20000076
C    21.18999863  10.19000053  48.48999786
C    21.65999985  10.78999996  49.72000122
C    20.75000000  11.28999901  50.63000107
C    19.37000084  11.26999950  50.38000107
C    15.19000053  11.49000072  49.65000153
C    14.59000015  12.13000107  50.77000046
C    13.28999996  12.60000038  50.77000046
C    23.12999916  10.67000008  50.07999802
H    23.32319450  10.90034962  51.12771606
H    18.75000000  12.01000023  52.32999802
H    17.07999992  10.64000034  47.85999680
H    19.43000031   9.77999973  47.29999924
H    21.86000061   9.50000000  47.97999954
H    21.01000023  11.64999962  51.62000275
H    12.79999924  12.75000000  51.72999954
H    23.57000160   9.70000076  49.79999924
H    23.78000069  11.36999989  49.54999924
S    12.02999973  11.56000042  47.12999725
C     9.28999996  11.92000008  47.81000137
C    10.64000034  11.90999985  48.18999863
C    11.03000069  12.32999992  49.50000000
C    10.03000069  12.68000031  50.45999908
C     8.73999977  12.69999981  50.11000061
C     7.77999973  13.07999992  51.00999832
C     6.53999996  13.36999989  50.61000061
C     6.06999969  13.20000076  49.27999878
C     6.98000002  12.67000008  48.40000153
C     8.31999969  12.43999958  48.79000092
C    12.43000031  12.35000038  49.61000061
C    13.12000084  11.82000065  48.47000122
C    14.44000053  11.44000053  48.43000031
C     4.63999987  13.36999989  48.96999741
H     4.32351923  12.86650848  48.05652237
H     8.89999962  11.51999950  46.88000107
H    10.25000000  12.81000042  51.52000046
H     8.05000019  13.27999973  52.04000092
H     5.82999992  13.78999901  51.32999802
H     6.76999998  12.48000050  47.35000229
H    14.78999996  11.21999931  47.43000031
H     4.46000004  14.45000076  48.95000076
H     3.96000004  13.00000000  49.73999786
