96

S    12.20999908  16.44000053  44.06000137
C     9.55000019  17.10000038  44.80999756
C    10.73999977  16.39999962  45.07999802
C    11.06999969  15.97000027  46.38999939
C    10.06999969  16.05999947  47.38999939
C     8.78000069  16.59000015  47.18999863
C     7.79999971  16.69999886  48.16999817
C     6.57999992  17.17000008  47.90000153
C     6.19999981  17.57999992  46.55000305
C     7.23999977  17.69000053  45.58000183
C     8.55000019  17.17000008  45.84999847
C    12.53000069  15.81999969  46.63000107
C    13.30000019  16.05999947  45.38999939
C    14.68000031  16.01000023  45.38000107
C     4.76000023  17.89999962  46.25000000
H     4.32937956  17.26101494  45.47904968
H     9.38000011  17.53000069  43.82999802
H    10.18000031  15.73999977  48.43000031
H     7.79999971  16.38000107  49.20999908
H     5.86999989  17.26000023  48.70999908
H     6.97000027  18.18000031  44.65000153
H    15.18000031  16.15999985  44.43000031
H     4.18000031  17.92000008  47.18000031
H     4.78999996  18.93000031  45.86999893
S    15.65000057  15.01000023  49.00000000
C    18.27000046  14.63999939  48.47000122
C    17.09000015  15.14000034  48.02000046
C    16.84999847  15.52999973  46.65000153
C    17.88999939  15.59000015  45.73999786
C    19.15999985  15.19999981  46.19999695
C    20.20999908  15.25000000  45.27999878
C    21.42999840  14.75999928  45.59000015
C    21.63999939  14.21000004  46.90999985
C    20.65000153  14.17000008  47.90999985
C    19.37000084  14.73000050  47.56000137
C    15.39999962  15.75000000  46.47999573
C    14.61999989  15.42000008  47.68000031
C    13.19000053  15.48999977  47.76000214
C    23.02000046  13.90999985  47.36000061
H    23.29881859  14.48157787  48.24524689
H    18.44000053  14.26000023  49.47000122
H    17.77000046  15.95999908  44.72999954
H    20.10000038  15.54999924  44.23999786
H    22.22999954  15.01000023  44.89999771
H    20.81999969  13.96000004  48.95999908
H    12.64000034  15.07999992  48.60000229
H    23.75000000  14.14999962  46.58000183
H    23.13999939  12.86000061  47.67000198
S    12.13000107  16.61000061  50.75000000
C     9.51000023  17.28999901  51.55000305
C    10.71000004  16.72000122  51.88000107
C    11.00999928  16.27000046  53.16999817
C    10.01999950  16.32999992  54.10999680
C     8.75000000  16.84999847  53.81000137
C     7.75000000  16.95999908  54.81999969
C     6.48999977  17.36999893  54.48999786
C     6.15999985  17.85000038  53.18999863
C     7.17999983  17.90999985  52.25000000
C     8.43999958  17.38000107  52.48000336
C    12.46000099  16.03000069  53.30999756
C    13.19000053  16.26000023  52.09000015
C    14.56999969  16.32999992  52.09000015
C     4.76999998  18.15000153  52.84000015
H     4.43889093  17.46664810  52.05801773
H     9.40999985  17.78000069  50.58000183
H    10.31999969  15.93000031  55.07999802
H     7.97999954  16.54999924  55.79999924
H     5.71000004  17.17000008  55.20999908
H     6.94000006  18.27999878  51.25999832
H    15.25000000  16.76000023  51.36000061
H     4.15999985  18.11000061  53.75999832
H     4.76999998  19.19000053  52.48000336
S    15.39000034  15.19000053  55.89000320
C    18.12000084  14.75000000  55.40999985
C    16.90999985  15.26000023  54.93000031
C    16.70999908  15.78999996  53.57999802
C    17.80999947  15.81999969  52.75000000
C    19.06999969  15.44000053  53.18000031
C    20.19000053  15.47999954  52.32999802
C    21.40000153  15.13000011  52.68000031
C    21.56999969  14.51000023  53.95999908
C    20.48999977  14.30999947  54.77000427
C    19.17000008  14.75000000  54.45999908
C    15.24000072  16.03000069  53.27000046
C    14.52000046  15.72000027  54.45999908
C    13.12999916  15.78999996  54.50000000
C    22.89999962  13.94000053  54.38999939
H    23.15838051  14.39391422  55.34671402
H    18.19000053  14.39000034  56.43000031
H    17.71999931  16.18000031  51.72999954
H    20.02000046  15.85000038  51.31999969
H    22.20000076  15.21999931  51.93999863
H    20.62999916  13.68000031  55.63999939
H    12.64000034  15.72999954  55.47000122
H    23.61000061  14.21000004  53.60000229
H    22.85000038  12.84999943  54.47000122
