96

S    11.92999935  16.53000069  44.20999908
C     9.34000015  17.13999939  45.00000000
C    10.59999943  16.72999954  45.34000015
C    10.92000008  16.14999962  46.63000107
C     9.85000038  15.95000076  47.48000336
C     8.47000027  16.28999901  47.16999817
C     7.42999983  16.13000107  48.06000137
C     6.17000008  16.56999969  47.81000137
C     5.88999987  17.13999939  46.50000000
C     6.90000010  17.27000046  45.56000137
C     8.26000023  16.84000015  45.89000320
C    12.34000015  15.95999908  46.76000214
C    13.03999996  16.22999954  45.59999847
C    14.37999916  16.14999962  45.52000046
C     4.51000023  17.60000038  46.05999756
H     4.14537334  17.20785332  45.11059189
H     9.32999992  17.85000038  44.16999817
H    10.05000019  15.67999935  48.52000427
H     7.69000006  15.84000015  49.08000183
H     5.38000011  16.61999893  48.55999756
H     6.63000011  17.68000031  44.59000015
H    14.94999981  16.47999954  44.65000153
H     3.79999995  17.31999969  46.84999847
H     4.67999983  18.68000031  45.97999954
S    15.55999947  14.88000011  49.13000107
C    18.15999985  14.60999966  48.36000061
C    16.88999939  15.03999901  48.02000046
C    16.57999992  15.62000084  46.76000214
C    17.61999893  15.85000038  45.89000320
C    18.96999931  15.51000023  46.22000122
C    20.00000000  15.80999947  45.28999710
C    21.25999832  15.36999893  45.63000107
C    21.51000023  14.77000046  46.88999939
C    20.58000183  14.52999973  47.81000137
C    19.25000000  14.85999966  47.48000336
C    15.14000034  15.72999954  46.63000107
C    14.42000008  15.38000011  47.80000305
C    13.04999924  15.47999954  47.84999847
C    22.89999962  14.30999947  47.29000092
H    23.31040382  14.68376160  48.22806931
H    18.34000015  14.25000000  49.36999893
H    17.34000015  16.11999893  44.87999725
H    19.67000008  16.11999893  44.29999924
H    22.04999924  15.31000042  44.88999939
H    20.75000000  14.02999973  48.75999832
H    12.55000019  15.42000008  48.81999969
H    23.55999947  14.59000015  46.45999908
H    22.93999863  13.21000004  47.28000259
S    15.77999973  12.39999962  52.34000397
C    18.36000061  11.85999966  51.55000305
C    17.02000046  11.84000015  51.20999908
C    16.43000031  11.49000072  49.93999863
C    17.35000038  11.18000031  48.94000244
C    18.77000046  11.23000050  49.22000122
C    19.82999992  10.93999958  48.27999878
C    21.09999847  11.00999928  48.57999802
C    21.54999924  11.18999958  49.89999771
C    20.61000061  11.51999950  50.86999893
C    19.20999908  11.56999969  50.52999878
C    15.03999901  11.73999977  49.82999802
C    14.55000019  12.15000057  51.10000229
C    13.23999977  12.56000042  51.25999832
C    22.90999985  10.76000023  50.34000015
H    23.24100685  11.16143227  51.29780197
H    18.68000031  11.75000000  52.57999802
H    17.01000023  10.75000000  48.00000000
H    19.52000046  10.72999954  47.25999832
H    21.80000114  10.69000053  47.81999969
H    20.82999992  11.52999973  51.93000031
H    12.94999981  13.12999916  52.14000320
H    22.93000031   9.65999985  50.30000305
H    23.62999916  11.11999989  49.59000015
S    11.54000092  11.79999924  47.60000229
C     9.06999969  12.23000050  48.50000000
C    10.36999893  12.28000069  48.75999832
C    10.95000076  12.64000034  50.06999969
C    10.05000019  13.09999943  51.02000427
C     8.67999935  13.22999954  50.76000214
C     7.78999996  13.78000069  51.69000244
C     6.48999977  13.89999962  51.27999878
C     5.96000004  13.42000008  50.05000305
C     6.84000015  12.81000042  49.16999817
C     8.17000008  12.76999950  49.51000214
C    12.34000015  12.39999962  50.15999603
C    12.84999943  12.00000000  48.88999939
C    14.22000027  11.77999973  48.69999695
C     4.48999977  13.53000069  49.68999863
H     4.35666418  13.10894012  48.69348907
H     8.73999977  12.06999969  47.47000122
H    10.44000053  13.36999989  52.00000000
H     8.15999985  13.97999954  52.69000244
H     5.77000046  14.27000046  52.00000000
H     6.47000027  12.53999901  48.18000031
H    14.63999939  11.59999943  47.70999908
H     4.25000000  14.59000015  49.79000092
H     3.91999984  12.98999977  50.45000076
