96

S    12.35999966  16.38000107  44.31999969
C     9.72999954  16.72999954  45.00000000
C    10.92000008  16.26000023  45.38999939
C    11.26999950  16.00000000  46.73999786
C    10.25000000  16.03000069  47.68000031
C     8.97000027  16.35000038  47.34000397
C     7.92000008  16.35000038  48.27999878
C     6.69000053  16.62999916  47.93000031
C     6.38999987  17.05000114  46.58000183
C     7.37999964  17.34000015  45.68999863
C     8.67000008  16.77999878  45.97000122
C    12.69000053  15.93999958  46.93999863
C    13.40000057  16.13999939  45.73999786
C    14.78000069  16.15999985  45.70000076
C     4.94000006  17.36999893  46.25999832
H     4.60018730  16.88151932  45.34675217
H     9.55000019  17.02999878  43.96999741
H    10.38000011  15.72999954  48.72000122
H     8.23000050  16.11999893  49.29000092
H     5.93999958  16.62999916  48.70999908
H     7.26999998  17.64000130  44.65999985
H    15.31000042  16.35000038  44.78000259
H     4.39000034  17.10000038  47.16999817
H     4.86000013  18.45000076  46.13999939
S    16.00000000  15.19000053  49.33000183
C    18.60999870  14.77000046  48.34999847
C    17.38999939  15.34000015  48.18999863
C    16.95999908  15.73999977  46.90999985
C    17.84000015  15.80999947  45.84999847
C    19.19000053  15.42000008  46.05999756
C    20.25000000  15.55999947  45.08999634
C    21.54999924  15.17000008  45.40999985
C    21.90999985  14.70000076  46.70999908
C    20.92000008  14.60000038  47.56999969
C    19.56999969  14.93999958  47.36000061
C    15.50000000  15.92000008  46.81999969
C    14.89999962  15.62000084  48.09000015
C    13.48000050  15.67999935  48.13999939
C    23.32999992  14.45000076  47.09000015
H    23.63478088  14.94615555  48.01143265
H    18.86000061  14.21000004  49.25000000
H    17.45000076  16.14999962  44.89999771
H    19.97999954  16.06999969  44.16999817
H    22.26000023  15.44999981  44.64000320
H    21.12999916  14.17000008  48.54000092
H    13.02000046  15.59000015  49.12000275
H    23.95000076  14.78000069  46.25000000
H    23.48999977  13.36999989  47.11000061
S    15.85000038  12.69000053  52.41000366
C    18.57999992  12.18999958  51.83000183
C    17.27000046  12.05000019  51.46999741
C    16.81999969  11.65999985  50.14999771
C    17.86000061  11.33999920  49.19000244
C    19.19000053  11.35000038  49.58000183
C    20.22000122  11.05000019  48.62999725
C    21.52000046  11.21999931  48.96999741
C    21.87000084  11.77000046  50.22999573
C    20.95999908  12.02999973  51.17000198
C    19.55999947  11.79999924  50.93000031
C    15.39999962  11.97000027  49.93999863
C    14.78999996  12.57999992  51.05999756
C    13.43999958  12.90999985  51.06999969
C    23.26999855  12.17000008  50.50000000
H    23.65693474  11.57904434  51.33015060
H    18.92000008  12.71999931  52.71999741
H    17.54999924  11.03000069  48.18999863
H    19.90999985  10.77000046  47.63000107
H    22.27000046  11.00999928  48.22000122
H    21.18999863  12.46999931  52.14000320
H    12.98999977  13.30000019  51.97999954
H    23.90999985  12.02999973  49.62999725
H    23.31999969  13.22999954  50.73999786
S    12.20000076  12.02000046  47.36000061
C     9.42000008  12.43000031  48.09999847
C    10.80999947  12.50000000  48.40000153
C    11.23000050  12.81999969  49.78000259
C    10.29999924  13.09000015  50.77000046
C     8.93999958  13.12999916  50.43000031
C     8.05000019  13.71000099  51.38999939
C     6.71999979  13.73999977  50.98999786
C     6.23000050  13.27000046  49.68000031
C     7.13999987  12.81999969  48.74000168
C     8.51000023  12.79999924  49.06999969
C    12.67000008  12.61999989  49.91000366
C    13.38999939  12.09000015  48.70999908
C    14.70999908  11.80999947  48.70999908
C     4.81999969  13.71999931  49.23999786
H     4.60145760  13.38866138  48.22483444
H     9.06999969  12.11999989  47.11999893
H    10.62999916  13.43000031  51.75000000
H     8.48999977  14.26000023  52.22000122
H     5.97000027  14.35999966  51.46999741
H     6.74000025  12.81000042  47.72999573
H    15.25000000  11.51000023  47.81999969
H     4.69000006  14.80999947  49.31000137
H     3.98999977  13.22000027  49.75000000
