96

S    12.18000031  16.68000031  44.09999847
C     9.55000019  17.10000038  44.87999725
C    10.80000019  16.62999916  45.11000061
C    11.13999939  16.26000023  46.44000244
C    10.21999931  16.25000000  47.43999863
C     8.86999989  16.68000031  47.25000000
C     7.88000011  16.77999878  48.30999756
C     6.61999989  17.30999947  48.08000183
C     6.30999994  17.64000130  46.75000000
C     7.23000002  17.57999992  45.73999786
C     8.56000042  17.13000107  45.90999985
C    12.55000019  16.00000000  46.59000015
C    13.28999996  16.35000038  45.45000076
C    14.67000008  16.28999901  45.31999969
C     4.85000038  17.97999954  46.42000198
H     4.45579243  17.29013634  45.67382050
H     9.26999950  17.42000008  43.87000275
H    10.52000046  16.03999901  48.46000290
H     8.19000053  16.44000053  49.29000092
H     5.88999987  17.26000023  48.88000107
H     6.90000010  17.85000038  44.73999786
H    15.21999931  16.43000031  44.38999939
H     4.21999979  18.06999969  47.31999969
H     4.97000027  19.00000000  46.02000427
S    15.71000004  15.39000034  49.03999710
C    18.45000076  15.06000042  48.33000183
C    17.15999985  15.48999977  48.02000046
C    16.84999847  15.88000107  46.65000153
C    17.89999962  16.09000015  45.75000000
C    19.22000122  15.72000027  46.09000397
C    20.31999969  15.80999947  45.21999741
C    21.60000038  15.53999996  45.73999786
C    21.76000214  14.81999969  46.97000122
C    20.68000031  14.55999947  47.70999908
C    19.45000076  15.08999920  47.32999802
C    15.38000011  15.95000076  46.49000168
C    14.63000107  15.71000004  47.65999603
C    13.22999954  15.77000046  47.80000305
C    23.12999916  14.22000027  47.38999939
H    23.55315971  14.76108932  48.23632050
H    18.60000038  14.60999966  49.31000137
H    17.53999901  16.38000107  44.75999832
H    20.15999985  16.25000000  44.22999954
H    22.46999931  15.80000019  45.13999939
H    20.86999893  14.04000092  48.63999939
H    12.76999950  15.72999954  48.77999878
H    23.74000168  14.27000046  46.47999573
H    23.02000046  13.15999985  47.64999771
S    16.17000008  12.71000004  52.43999863
C    18.78999901  12.20000076  51.46999741
C    17.46000099  12.31999969  51.22000122
C    16.93000031  12.00000000  49.87999725
C    17.77000046  11.47999954  48.95999908
C    19.11999893  11.26999950  49.23999786
C    19.96999931  10.67000008  48.29000092
C    21.31000137  10.46000004  48.63999939
C    21.87000084  10.88000107  49.89999771
C    20.96999931  11.59000015  50.77000046
C    19.63000107  11.77999973  50.47000122
C    15.47999954  12.05999947  49.89999771
C    14.96999931  12.55000019  51.18999863
C    13.68000031  12.97999954  51.25999832
C    23.34000015  10.73999977  50.17000198
H    23.73097801  11.15993881  51.09676361
H    19.13999939  12.48999977  52.45999908
H    17.43000031  11.23000050  47.95999908
H    19.54000092  10.26000023  47.37999725
H    21.96000099   9.98999977  47.90999985
H    21.37000084  12.11999989  51.63999939
H    13.34000015  13.34000015  52.22999954
H    23.46999931   9.65999985  50.31999969
H    23.84000015  11.05999947  49.25000000
S    12.25000000  12.10000038  47.65999603
C     9.63000011  12.67000008  48.46000290
C    10.93999958  12.61000061  48.72000122
C    11.39000034  13.12000084  50.04000092
C    10.44999981  13.50000000  51.02000427
C     9.07999992  13.45000076  50.70999908
C     8.10999966  13.80000019  51.68000031
C     6.78999996  13.76999950  51.39999771
C     6.37000036  13.32999992  50.13000107
C     7.30999994  12.94999981  49.26000214
C     8.67000008  13.00000000  49.45999908
C    12.82999992  12.89999962  50.17000198
C    13.35000038  12.32999992  48.99000168
C    14.59000015  11.85999966  48.81999969
C     4.94000006  13.52000046  49.68000031
H     4.72841501  13.04745960  48.72081375
H     9.25000000  12.25999928  47.52999878
H    10.77000046  13.93000031  51.97000122
H     8.38999939  14.09999943  52.69000244
H     6.02999973  14.13000011  52.09000015
H     6.98999977  12.69000053  48.26000214
H    14.96000099  11.49000072  47.87000275
H     4.79999971  14.60000038  49.54999924
H     4.21000004  13.22000027  50.44000244
