96

S    12.23000050  16.63999939  44.65000153
C     9.47000027  16.97999954  45.33000183
C    10.70000076  16.42000008  45.61999893
C    11.03999996  15.92000008  46.90999985
C     9.92000008  15.72000027  47.77000046
C     8.64999962  16.26000023  47.51999664
C     7.49000025  16.07999992  48.37999725
C     6.25999975  16.52000046  48.01000214
C     6.05999994  17.36999893  46.90000153
C     7.20000029  17.60000038  46.04000092
C     8.48999977  16.97000122  46.31000137
C    12.50000000  15.80999947  47.11999893
C    13.25000000  16.28999901  46.00000000
C    14.68999958  16.29999924  45.96000290
C     4.69999981  17.81999969  46.47999573
H     4.40464497  17.18709564  45.64315796
H     9.19999981  17.43999863  44.38000107
H    10.03000069  15.26000023  48.74000168
H     7.65999985  15.44999981  49.25000000
H     5.38999987  16.44000053  48.66000366
H     7.03000021  18.29000092  45.21999741
H    15.25000000  16.54999924  45.06999969
H     4.07000017  17.53000069  47.32999802
H     4.69000006  18.89999962  46.32999802
S    15.70000076  15.08999920  49.56999969
C    18.45000076  14.68999958  48.66000366
C    17.17000008  15.21999931  48.50000000
C    16.84000015  15.84000015  47.22000122
C    17.79000092  16.00000000  46.26999664
C    19.04000092  15.42000008  46.43000031
C    20.06000137  15.50000000  45.47000122
C    21.27000046  14.78000069  45.56000137
C    21.57999992  14.07999992  46.72999954
C    20.63999939  14.09999943  47.70999908
C    19.38999939  14.72000027  47.58999634
C    15.42000008  15.88999939  47.09999847
C    14.68000031  15.48999977  48.23999786
C    13.21000004  15.44999981  48.23999786
C    23.05999947  13.60999966  47.09000015
H    23.38872528  14.21742630  47.93325043
H    18.63999939  14.09000015  49.54999924
H    17.61999893  16.46999931  45.30000305
H    19.77000046  15.93000031  44.52000046
H    21.94000053  14.70999908  44.71000290
H    20.71000099  13.56999969  48.66000366
H    12.63000011  15.08999920  49.08000183
H    23.75000000  13.80000019  46.25999832
H    23.02000046  12.55000019  47.36000061
S    15.76000023  12.86000061  52.39999771
C    18.42000008  11.92000008  51.77000046
C    17.12000084  12.13999939  51.38000107
C    16.61999893  11.63000011  50.13999939
C    17.48999977  11.10000038  49.22000122
C    18.89000130  11.13000011  49.45000076
C    19.93000031  10.72999954  48.48999786
C    21.21999931  10.52999973  48.81000137
C    21.67000008  10.85000038  50.13000107
C    20.75000000  11.43000031  51.04999924
C    19.36000061  11.54000092  50.76000214
C    15.18000031  11.85999966  49.97000122
C    14.56999969  12.44999981  51.12999725
C    13.20000076  12.72999954  51.14999771
C    23.15000153  10.60999966  50.45999908
H    23.43750954  10.77829838  51.49784088
H    18.73999977  12.20000076  52.77000046
H    17.07999992  10.65999985  48.31999969
H    19.67000008  10.26000023  47.55000305
H    21.94000053   9.96999931  48.22000122
H    21.09000015  11.77999973  52.02000046
H    12.67000008  13.05999947  52.04000092
H    23.45999908   9.59000015  50.20999908
H    23.77000046  11.19999981  49.75999832
S    11.82000065  11.51999950  47.58999634
C     9.19000053  12.07999992  48.39000320
C    10.50000000  12.15999985  48.63999939
C    10.98000050  12.61999989  49.86000061
C    10.06000042  13.03999996  50.86000061
C     8.69000053  13.07999992  50.56999969
C     7.76000023  13.53999996  51.56999969
C     6.51999998  13.76000023  51.27999878
C     5.98000002  13.32999992  49.94999695
C     6.83000040  12.74000072  49.02000046
C     8.23000050  12.63000011  49.29000092
C    12.44999981  12.43000031  50.00000000
C    13.02999973  11.90999985  48.85000229
C    14.40999985  11.64999962  48.80000305
C     4.55999994  13.48000050  49.68999863
H     4.33611679  13.21278381  48.65724945
H     8.82999992  11.72999954  47.42000198
H    10.48999977  13.38000107  51.79999924
H     8.14000034  13.73000050  52.56999969
H     5.82999992  14.23999977  51.95999908
H     6.38000011  12.48999977  48.06000137
H    14.78000069  11.10999966  47.93000031
H     4.33999968  14.55000019  49.78000259
H     3.86999989  12.94999981  50.35999680
