96

S    12.15000057  16.67000008  44.52999878
C     9.53999996  16.90000153  45.19000244
C    10.75000000  16.36999893  45.54999924
C    11.06999969  16.03000069  46.88000107
C    10.14000034  16.07999992  47.88000107
C     8.85999966  16.61999893  47.63000107
C     7.82000017  16.79999924  48.61999893
C     6.48999977  17.06999969  48.20999908
C     6.21000004  17.35000038  46.84999847
C     7.26000023  17.46999931  45.94999695
C     8.51000023  16.94000053  46.25999832
C    12.56000042  15.73999977  47.04999924
C    13.27000046  16.10000038  45.80999756
C    14.63999939  16.27000046  45.73999786
C     4.77999973  17.67000008  46.38999939
H     4.49444628  17.14886475  45.47622681
H     9.28999996  17.31999969  44.22000122
H    10.38000011  16.03000069  48.94000244
H     8.01999950  16.54999924  49.65999985
H     5.68000031  17.02999878  48.94000244
H     7.05999947  18.00000000  45.02999878
H    15.13000011  16.50000000  44.79999924
H     4.21999979  17.50000000  47.31999969
H     4.61000013  18.75000000  46.25000000
S    15.98000050  15.32999992  49.34999847
C    18.55999947  14.81999969  48.41999817
C    17.27000046  15.29999924  48.16999817
C    16.84999847  15.80000019  46.90000153
C    17.79000092  15.88999939  45.94999695
C    19.11000061  15.44999981  46.13999939
C    20.10999870  15.47999954  45.13999939
C    21.34000015  14.88999939  45.33000183
C    21.73000145  14.30999947  46.63000107
C    20.76000023  14.27000046  47.61000061
C    19.47000122  14.81999969  47.36999893
C    15.43000031  15.93999958  46.88000107
C    14.77000046  15.64000034  48.11000061
C    13.38000107  15.59999943  48.18999863
C    23.15000153  13.82999992  46.97999954
H    23.49789619  14.35184574  47.87148666
H    18.79999924  14.42999935  49.40999985
H    17.48999977  16.14999962  44.93999863
H    19.84000015  15.86999989  44.15999985
H    22.03000069  14.80999947  44.48999786
H    21.00000000  13.83999920  48.57999802
H    12.89000034  15.52999973  49.15999985
H    23.85000038  14.04999924  46.17000198
H    23.09999847  12.75000000  47.18999863
S    15.93000031  12.56000042  52.15000153
C    18.54999924  12.05999947  51.25999832
C    17.20999908  12.03999996  51.04000092
C    16.65999985  11.65999985  49.75000000
C    17.47999954  11.18999958  48.72000122
C    18.90999985  11.21999931  48.89999771
C    19.75000000  10.64000034  47.97000122
C    21.11000061  10.50000000  48.31999969
C    21.68999863  11.03000069  49.55999756
C    20.85000038  11.57999992  50.45000076
C    19.47000122  11.64000034  50.21999741
C    15.21999931  11.92999935  49.68999863
C    14.67000008  12.57999992  50.90999985
C    13.38999939  12.82999992  50.98999786
C    23.15999985  10.67000008  49.85000229
H    23.51574707  10.90479279  50.85320663
H    19.01000023  12.23999977  52.22999954
H    17.09000015  10.67000008  47.84999847
H    19.34000015  10.19999981  47.06999969
H    21.90999985  10.01000023  47.76000214
H    21.21000099  11.85999966  51.44000244
H    12.97000027  13.12999916  51.93999863
H    23.29000092   9.59999943  49.65999985
H    23.81999969  11.03000069  49.05000305
S    11.77000046  11.79999924  47.56000137
C     9.26000023  12.61000061  48.25000000
C    10.53999996  12.46999931  48.56999969
C    11.10999966  12.76000023  49.86999893
C    10.26999950  13.19000053  50.90000153
C     8.90999985  13.30999947  50.65000153
C     8.01000023  13.78999901  51.62000275
C     6.67999983  13.83999920  51.31999969
C     6.19999981  13.45000076  50.04000092
C     7.03000021  13.12000084  49.03999710
C     8.43000031  13.02000046  49.29999924
C    12.53999901  12.60000038  49.92000198
C    13.03999996  12.11999989  48.68999863
C    14.40999985  11.75000000  48.60000229
C     4.74000025  13.78000069  49.69999695
H     4.41729450  13.21877289  48.82307816
H     8.93999958  12.18000031  47.30999756
H    10.62000084  13.45000076  51.90000153
H     8.46000004  14.13000011  52.55000305
H     5.95000029  14.34000015  51.95000076
H     6.67000008  12.89000034  48.04000092
H    14.80999947  11.36000061  47.67000198
H     4.71000004  14.85000038  49.47999954
H     4.13000011  13.48999977  50.56999969
