96

S    12.38999939  16.53000069  44.09999847
C     9.82999992  17.09000015  44.93999863
C    11.00999928  16.54999924  45.13999939
C    11.31000042  16.06999969  46.43000031
C    10.29000092  15.72000027  47.31999969
C     9.01000023  16.13000107  47.04000092
C     7.83999968  15.88000107  47.85999680
C     6.60000038  16.25000000  47.44999695
C     6.39999962  17.13000107  46.31999969
C     7.49000025  17.42000008  45.59000015
C     8.78000069  16.94000053  45.86000061
C    12.77999973  15.93000031  46.63999939
C    13.47000027  16.10000038  45.37000275
C    14.88000011  16.07999992  45.27000046
C     5.07999992  17.63000107  45.86000061
H     4.66928148  17.08473587  45.01023865
H     9.61000061  17.43000031  43.93000031
H    10.54999924  15.13000011  48.20000076
H     7.97999954  15.34999943  48.80000305
H     5.73999977  15.78999996  47.93000031
H     7.25000000  17.82999992  44.61000061
H    15.46000004  16.29999924  44.38999939
H     4.42999983  17.48999977  46.72999954
H     5.13999987  18.71999931  45.72000122
S    15.98000050  14.98999977  49.01000214
C    18.57999992  14.40000057  48.22999954
C    17.35999870  14.92000008  47.90000153
C    17.05000114  15.34999943  46.51000214
C    18.02000046  15.46000004  45.58000183
C    19.27000046  15.05000019  45.90999985
C    20.29999924  15.11000061  44.93999863
C    21.61000061  14.68000031  45.21999741
C    21.91999817  14.15999985  46.49000168
C    20.89999962  14.01000023  47.48000336
C    19.55000114  14.44000053  47.18999863
C    15.57999992  15.65000057  46.38999939
C    14.88000011  15.39999962  47.63999939
C    13.52000046  15.54999924  47.76000214
C    23.40999985  13.86000061  46.91999817
H    23.61301613  14.41304493  47.83707428
H    18.86000061  13.96000004  49.18000031
H    17.75000000  15.97000027  44.65999985
H    20.10000038  15.52000046  43.95000076
H    22.32999992  14.68000031  44.40999985
H    21.15999985  13.66000080  48.47999954
H    12.94000053  15.31000042  48.64999771
H    24.13000107  14.18000031  46.16000366
H    23.36999893  12.76999950  47.00000000
S    16.18000031  12.50000000  52.04000092
C    18.68000031  11.76000023  51.33999634
C    17.32999992  11.82999992  51.05999756
C    16.82999992  11.31000042  49.85000229
C    17.71000099  10.72999954  48.93000031
C    19.10000038  10.72000027  49.18000031
C    20.06999969  10.25000000  48.25000000
C    21.40000153  10.36999893  48.39000320
C    21.88999939  10.82999992  49.59999847
C    21.00000000  11.38000011  50.50000000
C    19.59000015  11.36000061  50.31999969
C    15.44000053  11.49000072  49.80999756
C    14.88999939  12.15999985  50.93000031
C    13.55000019  12.64000034  51.04000092
C    23.29000092  10.85000038  49.98000336
H    23.51283836  11.10878181  51.01512527
H    19.15999985  12.07999992  52.25999832
H    17.29999924  10.43000031  47.97000122
H    19.62000084   9.84000015  47.35000229
H    22.07999992  10.14999962  47.56999969
H    21.37000084  12.01000023  51.30000305
H    13.15000057  13.22999954  51.86000061
H    23.62999916   9.84000015  49.68999863
H    23.69999886  11.57999992  49.27000046
S    11.97999954  11.49000072  47.57999802
C     9.38000011  12.23000050  48.34999847
C    10.76000023  12.20999908  48.56999969
C    11.26999950  12.58999920  49.81999969
C    10.47999954  13.27000046  50.72999954
C     9.15000057  13.40999985  50.43000031
C     8.36000061  14.02999973  51.42000198
C     6.98000002  14.14999962  51.23000336
C     6.38999987  13.50000000  50.06999969
C     7.18999958  12.72999954  49.22999954
C     8.55000019  12.75000000  49.34000015
C    12.69999981  12.28999996  49.95999908
C    13.23999977  11.69000053  48.83999634
C    14.55000019  11.28999901  48.74000168
C     4.90000010  13.56999969  49.73999786
H     4.74714613  13.34766674  48.68391800
H     8.93999958  11.76000023  47.47000122
H    10.77000046  13.59000015  51.72999954
H     8.76999950  14.52999973  52.29000092
H     6.32000017  14.65999985  51.91999817
H     6.61000013  12.23000050  48.44999695
H    14.88000011  11.03999996  47.74000168
H     4.50000000  14.59000015  49.86000061
H     4.26999998  12.89999962  50.33000183
