96

S    12.15000057  16.70999908  44.43999863
C     9.51000023  16.90000153  45.13999939
C    10.71000004  16.39000130  45.44000244
C    11.05000019  15.85999966  46.72999954
C    10.08999920  15.80000019  47.74000168
C     8.76000023  16.23999977  47.42000198
C     7.69999981  16.18999863  48.34000015
C     6.42000008  16.63999939  48.01000214
C     6.11999989  17.17000008  46.68000031
C     7.14999962  17.23999977  45.79999924
C     8.43999958  16.67000008  46.04999924
C    12.43000031  15.67000008  46.81000137
C    13.19000053  16.10999870  45.66999817
C    14.60000038  16.10000038  45.65999985
C     4.74000025  17.78000069  46.23000336
H     4.47904587  17.39914894  45.24260712
H     9.46000004  17.59000015  44.29000092
H    10.34000015  15.39999962  48.72000122
H     7.90999985  15.77000046  49.31999969
H     5.65999985  16.73999977  48.77999878
H     7.07999992  17.71999931  44.82999802
H    15.06999969  16.47999954  44.75999832
H     3.93000007  17.39999962  46.86000061
H     4.69000006  18.86999893  46.12999725
S    15.76000023  14.98999977  49.22000122
C    18.43000031  14.55999947  48.44999695
C    17.13999939  14.98999977  48.20000076
C    16.87000084  15.47999954  46.90999985
C    17.84000015  15.72000027  46.00999832
C    19.20999908  15.38000011  46.29000092
C    20.23999977  15.47000027  45.34000015
C    21.51000023  15.14000034  45.70999908
C    21.83000183  14.63000107  47.00000000
C    20.81999969  14.50000000  47.94000244
C    19.47000122  14.75999928  47.54000092
C    15.32999992  15.62999916  46.79999924
C    14.63999939  15.39999962  47.97000122
C    13.19000053  15.36000061  47.94000244
C    23.26999855  14.30999947  47.34000397
H    23.57330513  14.82783985  48.24991989
H    18.70000076  14.15999985  49.43000031
H    17.53000069  15.92000008  44.99000168
H    20.10999870  16.02000046  44.40999985
H    22.29999924  15.21000004  44.97000122
H    20.98999977  14.19000053  48.96999741
H    12.67000008  15.26000023  48.88999939
H    23.97000122  14.63999939  46.56000137
H    23.29999924  13.22000027  47.41000366
S    16.01000023  12.38000011  52.25000000
C    18.63000107  12.02000046  51.36000061
C    17.31999969  11.82000065  51.17000198
C    16.80999947  11.33999920  49.98000336
C    17.67000008  11.00000000  48.97999573
C    19.09000015  11.13000011  49.15999985
C    20.15999985  10.77000046  48.22999954
C    21.51000023  10.90000057  48.50000000
C    21.94999886  11.31000042  49.79999924
C    21.02999878  11.65999985  50.75000000
C    19.62000084  11.57999992  50.44000244
C    15.36999893  11.59000015  49.85000229
C    14.80000019  12.15000057  50.94999695
C    13.43000031  12.61000061  51.00999832
C    23.36000061  11.10999966  50.14999771
H    23.67241478  11.38770103  51.15666580
H    18.96000099  12.48999977  52.29000092
H    17.28000069  10.73999977  48.00000000
H    19.69000053  10.34999943  47.35000229
H    22.36000061  10.57999992  47.90000153
H    21.31000137  12.00000000  51.73999786
H    13.02000046  13.20000076  51.81999969
H    23.57999992  10.03000069  50.10000229
H    23.94000053  11.64999962  49.38999939
S    12.09000015  11.57999992  47.44999695
C     9.40999985  12.17000008  48.18999863
C    10.77000046  12.28999996  48.40999985
C    11.26000023  12.79999924  49.69999695
C    10.38000011  13.26000023  50.61999893
C     8.96000004  13.15000057  50.41999817
C     8.05000019  13.45000076  51.52000046
C     6.74000025  13.67000008  51.18999863
C     6.17999983  13.26000023  49.89999771
C     7.03000021  12.81999969  48.93000031
C     8.40999985  12.74000072  49.12000275
C    12.64999962  12.38999939  49.88999939
C    13.23999977  11.79999924  48.75000000
C    14.52999973  11.39000034  48.68999863
C     4.78999996  13.73999977  49.56999969
H     4.51786518  13.38908863  48.57455826
H     9.15999985  11.77000046  47.21000290
H    10.82999992  13.55000019  51.56999969
H     8.40999985  13.89000034  52.43999863
H     6.17000008  14.44000053  51.70999908
H     6.65000010  12.56000042  47.94000244
H    14.85999966  10.93000031  47.76000214
H     4.86000013  14.84000015  49.52999878
H     4.03999996  13.40999985  50.28999710
