96

S    12.38000011  16.84000015  44.10999680
C     9.70000076  17.15999985  44.64000320
C    10.93999958  16.69999886  45.11000061
C    11.19999981  16.26000023  46.39999771
C    10.13000011  16.28999901  47.30999756
C     8.85000038  16.77000046  46.88000107
C     7.79999971  16.82999992  47.80000305
C     6.56000042  17.35000038  47.47000122
C     6.30999994  17.81999969  46.16000366
C     7.30000019  17.89999962  45.20999908
C     8.60000038  17.28000069  45.59000015
C    12.69999981  16.14999962  46.53999710
C    13.42000008  16.28000069  45.34000015
C    14.78999996  16.31999969  45.27000046
C     4.85000038  18.09000015  45.76000214
H     4.57553673  17.54107285  44.85919952
H     9.65999985  17.60000038  43.64999771
H    10.32999992  16.18000031  48.37999725
H     8.05999947  16.52000046  48.81000137
H     5.79999971  17.51000023  48.22999954
H     7.03000021  18.35000038  44.26000214
H    15.26999950  16.69000053  44.36000061
H     4.19999981  17.79999924  46.59000015
H     4.79999971  19.18000031  45.79000092
S    15.85999966  15.44999981  49.06000137
C    18.54999924  15.31000042  48.31999969
C    17.25000000  15.44999981  47.91999817
C    16.93000031  15.82999992  46.59000015
C    17.94999886  15.95000076  45.61999893
C    19.29000092  15.65000057  46.00999832
C    20.32999992  15.75000000  45.04000092
C    21.60000038  15.31000042  45.22999573
C    21.98999786  14.84000015  46.55000305
C    21.01000023  14.92000008  47.55000305
C    19.61000061  15.27999973  47.38999939
C    15.47999954  16.03000069  46.46999741
C    14.73000050  15.67999935  47.64999771
C    13.36999989  15.67000008  47.65999603
C    23.40999985  14.42999935  46.93000031
H    23.78320694  14.96516514  47.80316162
H    18.71999931  14.96000099  49.33000183
H    17.67000008  16.36000061  44.65000153
H    19.98999977  16.17000008  44.09999847
H    22.34999847  15.42000008  44.43999863
H    21.28000069  14.68000031  48.57999802
H    12.71000004  15.31999969  48.44999695
H    23.95000076  14.52000046  45.97999954
H    23.42000008  13.35000038  47.11999893
S    11.89000034  16.98999977  50.70000076
C     9.26000023  17.28000069  51.45000076
C    10.48999977  16.72999954  51.73999786
C    10.82999992  16.21999931  53.02000046
C     9.85999966  16.06999969  53.92000198
C     8.56999969  16.69000053  53.70999908
C     7.59000015  16.73999977  54.65999985
C     6.32999992  17.23999977  54.40000153
C     5.97000027  17.77000046  53.13999939
C     7.02000046  17.87999916  52.22000122
C     8.27999973  17.34000015  52.50000000
C    12.30000019  16.00000000  53.16999817
C    13.01000023  16.42000008  52.00000000
C    14.42999935  16.48999977  52.00000000
C     4.55999994  18.22999954  52.72999573
H     4.15230370  17.47285080  52.06021500
H     9.06999969  17.68000031  50.45000076
H    10.01000023  15.59000015  54.88999939
H     7.82999992  16.17000008  55.54999924
H     5.61999989  17.20000076  55.21999741
H     6.84999990  18.25000000  51.20999908
H    15.11000061  16.75000000  51.18999863
H     3.86000013  18.35000038  53.55999756
H     4.55000019  19.14999962  52.14000320
S    15.38000011  15.22999954  55.72999954
C    18.09000015  14.80000019  54.86999893
C    16.82999992  15.31999969  54.62999725
C    16.50000000  15.85000038  53.30999756
C    17.59000015  16.03000069  52.43000031
C    18.89999962  15.55999947  52.78999710
C    20.05000114  15.77000046  51.93999863
C    21.25000000  15.18000031  52.29999924
C    21.50000000  14.60999966  53.54999924
C    20.36999893  14.42999935  54.36000061
C    19.17000008  14.96999931  53.99000168
C    15.06000042  16.06999969  53.16999817
C    14.34000015  15.67999935  54.33000183
C    12.97999954  15.55999947  54.33000183
C    22.88000107  14.07999992  53.89999771
H    23.24554062  14.61368847  54.77729797
H    18.26000023  14.27999973  55.80999756
H    17.48999977  16.63999939  51.53999710
H    19.88000107  16.18000031  50.94999695
H    22.07999992  15.31999969  51.62000275
H    20.39999962  13.68999958  55.15999603
H    12.32999992  15.14000034  55.08999634
H    23.50000000  14.32000065  53.02999878
H    22.85000038  13.00000000  54.06999969
