96

S    12.20999908  16.44000053  44.06000137
C     9.55000019  17.10000038  44.80999756
C    10.73999977  16.39999962  45.07999802
C    11.06999969  15.97000027  46.38999939
C    10.06999969  16.05999947  47.38999939
C     8.78000069  16.59000015  47.18999863
C     7.79999971  16.69999886  48.16999817
C     6.57999992  17.17000008  47.90000153
C     6.19999981  17.57999992  46.55000305
C     7.23999977  17.69000053  45.58000183
C     8.55000019  17.17000008  45.84999847
C    12.53000069  15.81999969  46.63000107
C    13.30000019  16.05999947  45.38999939
C    14.68000031  16.01000023  45.38000107
C     4.76000023  17.89999962  46.25000000
H     4.32937956  17.26101494  45.47904968
H     9.38000011  17.53000069  43.82999802
H    10.18000031  15.73999977  48.43000031
H     7.79999971  16.38000107  49.20999908
H     5.86999989  17.26000023  48.70999908
H     6.97000027  18.18000031  44.65000153
H    15.18000031  16.15999985  44.43000031
H     4.18000031  17.92000008  47.18000031
H     4.78999996  18.93000031  45.86999893
S    15.65000057  15.01000023  49.00000000
C    18.27000046  14.63999939  48.47000122
C    17.09000015  15.14000034  48.02000046
C    16.84999847  15.52999973  46.65000153
C    17.88999939  15.59000015  45.73999786
C    19.15999985  15.19999981  46.19999695
C    20.20999908  15.25000000  45.27999878
C    21.42999840  14.75999928  45.59000015
C    21.63999939  14.21000004  46.90999985
C    20.65000153  14.17000008  47.90999985
C    19.37000084  14.73000050  47.56000137
C    15.39999962  15.75000000  46.47999573
C    14.61999989  15.42000008  47.68000031
C    13.19000053  15.48999977  47.76000214
C    23.02000046  13.90999985  47.36000061
H    23.29881859  14.48157787  48.24524689
H    18.44000053  14.26000023  49.47000122
H    17.77000046  15.95999908  44.72999954
H    20.10000038  15.54999924  44.23999786
H    22.22999954  15.01000023  44.89999771
H    20.81999969  13.96000004  48.95999908
H    12.64000034  15.07999992  48.60000229
H    23.75000000  14.14999962  46.58000183
H    23.13999939  12.86000061  47.67000198
S    16.13000107  12.23000050  52.36000061
C    18.71999931  11.69000053  51.51000214
C    17.40999985  11.65999985  51.25999832
C    16.97999954  11.35000038  49.93000031
C    17.85000038  10.92000008  48.94000244
C    19.22999954  10.93000031  49.26000214
C    20.19000053  10.53999996  48.29000092
C    21.54000092  10.48999977  48.69999695
C    22.04999924  10.84000015  49.95999908
C    21.12999916  11.28999901  50.84999847
C    19.69000053  11.33999920  50.52999878
C    15.59000015  11.69000053  49.82999802
C    15.00000000  12.10999966  51.04999924
C    13.68999958  12.44999981  51.09000397
C    23.46999931  10.62999916  50.28999710
H    23.66884232  10.89512157  51.32839584
H    19.01000023  11.92000008  52.52999878
H    17.56999969  10.47999954  47.98999786
H    19.85999870  10.14999962  47.32999802
H    22.17000008  10.06000042  47.93000031
H    21.31000137  11.52999973  51.88999939
H    13.27999973  12.84000015  52.01000214
H    23.64999962   9.55000019  50.15999603
H    24.09000015  11.17000008  49.55999756
S    12.23000050  11.67000008  47.41000366
C     9.68999958  12.41000080  48.23999786
C    11.07999992  12.46999931  48.44999695
C    11.61999893  12.89000034  49.72000122
C    10.67999935  13.31999969  50.63000107
C     9.26999950  13.30999947  50.45000076
C     8.39999962  13.73999977  51.49000168
C     7.07000017  13.93000031  51.19999695
C     6.53999996  13.59000015  49.91000366
C     7.37999964  13.09999943  48.94000244
C     8.76999950  12.89999962  49.15999985
C    12.98999977  12.44999981  49.88999939
C    13.43000031  11.80999947  48.73000336
C    14.77000046  11.44000053  48.73000336
C     5.09000015  13.90999985  49.61000061
H     4.77384758  13.54868317  48.63143158
H     9.46000004  11.94000053  47.28000259
H    11.05000019  13.55999947  51.62000275
H     8.85000038  13.94999981  52.45999908
H     6.44999981  14.32999992  51.98999786
H     7.00999975  12.90999985  47.94000244
H    15.31999969  11.14999962  47.84000015
H     5.10999966  15.01000023  49.71000290
H     4.42000008  13.53000069  50.38999939
