96

S    12.28000069  16.61999893  44.09999847
C     9.65999985  16.98999977  44.86999893
C    10.95999908  16.65999985  45.24000168
C    11.26999950  16.29999924  46.58000183
C    10.25000000  16.31999969  47.48000336
C     8.89999962  16.67000008  47.25000000
C     7.90000010  16.61000061  48.15999985
C     6.56000042  17.00000000  47.77999878
C     6.32999992  17.53999901  46.47999573
C     7.31999969  17.52000046  45.54999924
C     8.64000034  17.05999947  45.86999893
C    12.71999931  16.13999939  46.73999786
C    13.40000057  16.31000137  45.47999954
C    14.80000019  16.31999969  45.51000214
C     4.90000010  17.87999916  46.06999969
H     4.46342850  17.19103622  45.34692764
H     9.52000046  17.29999924  43.83999634
H    10.55999947  16.09000015  48.50000000
H     8.02999973  16.03000069  49.06999969
H     5.66999960  16.72000122  48.34000015
H     7.07000017  18.01000023  44.61000061
H    15.31999969  16.40999985  44.55999756
H     4.11999989  17.71000099  46.83000183
H     4.84000015  18.92000008  45.75000000
S    15.90999985  15.10000038  49.19000244
C    18.57999992  14.75999928  48.63999939
C    17.35000038  15.26999950  48.27999878
C    17.00000000  15.80000019  46.93000031
C    18.09000015  15.80999947  46.04999924
C    19.34000015  15.24000072  46.36000061
C    20.29000092  15.19999981  45.38000107
C    21.54000092  14.63000107  45.63999939
C    21.88999939  14.13000011  46.97000122
C    20.95999908  14.21000004  47.95999908
C    19.64999962  14.70999908  47.65999603
C    15.52000046  15.97000027  46.69000244
C    14.82999992  15.60999966  47.90000153
C    13.43999958  15.71000004  47.88000107
C    23.34000015  13.94000053  47.31999969
H    23.63220978  14.49591255  48.21088409
H    18.76000023  14.39000034  49.65000153
H    17.86999893  16.09000015  45.01999664
H    20.22999954  15.75000000  44.45000076
H    22.30999947  14.53999996  44.87999725
H    21.18999863  13.89000034  48.96999741
H    12.81999969  15.36000061  48.70999908
H    24.10000038  14.19999981  46.58000183
H    23.47999954  12.88000011  47.55000305
S    11.54999924  16.79000092  50.93000031
C     8.97000027  17.09000015  51.76000214
C    10.26000023  16.79999924  52.06999969
C    10.62000084  16.34000015  53.37999725
C     9.65999985  16.36999893  54.38000107
C     8.27000046  16.72999954  54.13999939
C     7.23000002  16.80999947  55.13000107
C     5.92999983  17.11000061  54.75999832
C     5.60999966  17.38999939  53.41999817
C     6.67999983  17.45000076  52.52999878
C     7.96999979  17.01000023  52.80000305
C    12.03999996  16.20000076  53.40000153
C    12.71000004  16.46000099  52.16999817
C    14.07999992  16.25000000  52.02000046
C     4.17000008  17.79000092  52.97000122
H     4.01255751  17.48196030  51.93635559
H     8.71999931  17.56000137  50.80999756
H     9.85999966  16.10000038  55.40999985
H     7.46999979  16.55999947  56.16000366
H     5.07999992  17.05000114  55.43000031
H     6.58999968  17.63000107  51.45999908
H    14.55999947  16.61000061  51.11000061
H     3.38000011  17.29999924  53.54999924
H     4.11000013  18.89000130  53.00000000
S    15.29000092  15.14999962  55.66999817
C    17.86000061  14.67000008  54.97000122
C    16.61999893  15.11999989  54.55999756
C    16.31999969  15.65000057  53.29000092
C    17.35000038  15.80000019  52.45999908
C    18.67000008  15.39999962  52.81999969
C    19.71999931  15.36000061  51.84999847
C    20.96999931  14.81999969  52.18000031
C    21.27000046  14.23999977  53.43999863
C    20.25000000  14.25000000  54.40000153
C    18.90999985  14.73000050  54.06999969
C    14.88000011  15.92000008  53.13999939
C    14.18000031  15.75000000  54.38999939
C    12.84000015  15.77999973  54.50000000
C    22.67000008  14.01000023  53.86000061
H    22.83157730  14.38232994  54.87161636
H    18.04000092  14.22999954  55.94999695
H    17.19000053  16.26000023  51.49000168
H    19.61000061  15.86999989  50.89000320
H    21.73999977  14.94999981  51.43000031
H    20.50000000  13.97999954  55.41999817
H    12.30000019  15.31000042  55.31999969
H    23.38000107  14.56999969  53.25000000
H    22.93000031  12.94999981  53.72000122
