96

S    12.25999928  16.59000015  44.33000183
C     9.59000015  16.53000069  44.97000122
C    10.85999966  16.18999863  45.28999710
C    11.14999962  15.72000027  46.62000275
C    10.21000004  15.53999996  47.56000137
C     8.90999985  15.95999908  47.29999924
C     7.85000038  15.75000000  48.26000214
C     6.61000013  16.18000031  47.91999817
C     6.26999950  16.69999886  46.63999939
C     7.30999994  16.88999939  45.76000214
C     8.60000038  16.40999985  46.02000427
C    12.56999969  15.67999935  46.81999969
C    13.34000015  16.10000038  45.65999985
C    14.70999908  16.02000046  45.54000092
C     4.88000011  17.30999947  46.31999969
H     4.56759548  16.91239357  45.35438538
H     9.32999992  17.00000000  44.02000046
H    10.52000046  14.96999931  48.43000031
H     7.96999979  15.34000015  49.26000214
H     5.84999990  16.07999992  48.69999695
H     7.11999989  17.50000000  44.87999725
H    15.24000072  16.09000015  44.59999847
H     4.21000004  17.17000008  47.16999817
H     5.03999996  18.38999939  46.17000198
S    15.76000023  14.80999947  49.18000031
C    18.52000046  14.63999939  48.41999817
C    17.27000046  14.96000099  48.11000061
C    16.87000084  15.44999981  46.75000000
C    17.86999893  15.53999996  45.76000214
C    19.22999954  15.17000008  46.10000229
C    20.32999992  15.17000008  45.12000275
C    21.63000107  14.82999992  45.47000122
C    21.87000084  14.48999977  46.79999924
C    20.85000038  14.42999935  47.70999908
C    19.48999977  14.70000076  47.42000198
C    15.39999962  15.64000034  46.69000244
C    14.65999985  15.34000015  47.94000244
C    13.30999947  15.31999969  47.97000122
C    23.31000137  14.11999893  47.21000290
H    23.62087631  14.56100845  48.15708542
H    18.81000137  14.13000011  49.33000183
H    17.59000015  15.81999969  44.73999786
H    20.15999985  15.53999996  44.10999680
H    22.46999931  14.75999928  44.78000259
H    21.09999847  14.26000023  48.75999832
H    12.75000000  14.81999969  48.75999832
H    24.05999947  14.35999966  46.45000076
H    23.40999985  13.03999996  47.41000366
S    11.96000004  16.28999901  50.91999817
C     9.36999989  16.72000122  51.90999985
C    10.65000057  16.18999863  52.11000061
C    11.03999996  15.88999939  53.43000031
C    10.03999901  15.88999939  54.47000122
C     8.67999935  16.31999969  54.22999954
C     7.57999992  16.10999870  55.14999771
C     6.35999966  16.64999962  54.88999939
C     6.07999992  17.07999992  53.60000229
C     7.07999992  17.23999977  52.63999939
C     8.38999939  16.79000092  52.88999939
C    12.50000000  15.90000057  53.50999832
C    13.12999916  15.95999908  52.22000122
C    14.52000046  15.93000031  52.15000153
C     4.65999985  17.50000000  53.26000214
H     4.39461851  17.22065163  52.24037552
H     9.11000061  17.00000000  50.89000320
H    10.26000023  15.42000008  55.41999817
H     7.79999971  15.69000053  56.12999725
H     5.63000011  16.72999954  55.70000076
H     6.94000006  17.71000099  51.66999817
H    15.03999901  16.13000107  51.22000122
H     4.00000000  17.01000023  53.99000168
H     4.76999998  18.59000015  53.34999847
S    15.78999996  15.27999973  55.93000031
C    18.43000031  14.82999992  55.06999969
C    17.13999939  15.19999981  54.80999756
C    16.75000000  15.57000065  53.47000122
C    17.73999977  15.71000004  52.50000000
C    19.10000038  15.52000046  52.83000183
C    20.19000053  15.73999977  51.93999863
C    21.40000153  15.26000023  52.23999786
C    21.80000114  14.65000057  53.52000427
C    20.79999924  14.44000053  54.40999985
C    19.48999977  14.93999958  54.10999680
C    15.29000092  15.70000076  53.27999878
C    14.63999939  15.65999985  54.56999969
C    13.26000023  15.72000027  54.65000153
C    23.19000053  14.14000034  53.81999969
H    23.40792847  14.43525696  54.84636688
H    18.71000099  14.60999966  56.10000229
H    17.38000107  15.77000046  51.47999573
H    20.03000069  16.10000038  50.93000031
H    22.20999908  15.27999973  51.51000214
H    21.04999924  14.00000000  55.37000275
H    12.81000042  15.67999935  55.63999939
H    23.90999985  14.63000107  53.15999985
H    23.32999992  13.05999947  53.70999908
