96

S    12.20000076  16.84999847  44.10999680
C     9.55999947  17.21999931  44.82999802
C    10.88000107  16.84999847  45.20000076
C    11.30000019  16.47999954  46.55000305
C    10.31999969  16.40999985  47.52999878
C     8.96000004  16.65999985  47.18999863
C     7.82999992  16.61000061  48.13999939
C     6.50000000  16.82999992  47.83000183
C     6.19000006  17.27000046  46.45999908
C     7.23000002  17.56000137  45.58000183
C     8.59000015  17.15999985  45.86000061
C    12.71000004  16.21000099  46.65000153
C    13.30999947  16.44000053  45.45000076
C    14.73999977  16.48999977  45.35999680
C     4.77999973  17.52000046  45.98999786
H     4.53639269  16.96318436  45.08517075
H     9.35999966  17.59000015  43.82999802
H    10.52000046  16.10000038  48.54999924
H     8.00000000  16.13000107  49.09999847
H     5.72000027  17.05000114  48.54999924
H     7.02000046  17.94000053  44.58000183
H    15.14000034  16.84999847  44.41999817
H     4.02999973  17.18000031  46.72000122
H     4.76000023  18.61999893  45.96000290
S    15.97000027  15.59999943  48.97999573
C    18.60999870  15.26000023  48.29000092
C    17.35000038  15.53999996  47.85999680
C    16.97000122  15.95000076  46.53999710
C    17.94000053  15.95000076  45.63000107
C    19.20999908  15.57999992  46.02000427
C    20.25000000  15.72999954  45.07999802
C    21.47999954  15.21000004  45.31000137
C    21.86000061  14.78000069  46.60999680
C    20.93000031  14.81999969  47.57999802
C    19.60000038  15.19000053  47.34000397
C    15.52000046  16.07999992  46.45000076
C    14.86999989  15.88000107  47.70000076
C    13.48999977  15.93999958  47.78999710
C    23.23999786  14.35999966  46.93000031
H    23.47852516  14.51434040  47.98232269
H    18.76000023  14.93999958  49.31999969
H    17.75000000  16.18999863  44.58000183
H    19.96999931  16.17000008  44.13000107
H    22.14999962  15.15999985  44.45999908
H    21.12999916  14.65999985  48.62999725
H    13.00000000  15.65000057  48.72000122
H    23.90999985  14.88999939  46.24000168
H    23.35000038  13.31999969  46.59999847
S    12.00000000  17.01000023  50.72999954
C     9.26000023  17.28000069  51.43000031
C    10.52000046  16.75000000  51.70000076
C    10.86999989  16.20000076  53.01000214
C     9.89999962  16.15999985  54.01000214
C     8.57999992  16.59000015  53.73000336
C     7.62000036  16.61999893  54.72000122
C     6.39999962  17.25000000  54.40000153
C     6.05000019  17.65999985  53.06999969
C     7.00999975  17.56999969  52.11999893
C     8.28999996  17.19000053  52.43000031
C    12.31999969  16.02000046  53.26000214
C    13.00000000  16.46999931  52.06999969
C    14.37999916  16.61000061  52.08000183
C     4.69999981  18.02000046  52.56000137
H     4.31402731  17.37900925  51.76737595
H     9.03999996  17.80999947  50.51000214
H    10.11000061  15.77999973  55.00000000
H     7.82000017  16.39999962  55.77000046
H     5.73999977  17.46999931  55.22999573
H     6.77999973  17.79000092  51.07999802
H    14.92000008  16.90999985  51.18999863
H     4.02999973  17.92000008  53.41999817
H     4.59999990  19.06999969  52.22999954
S    15.47000027  15.11000061  55.63000107
C    18.13999939  15.13000011  55.00999832
C    16.87999916  15.40999985  54.66999817
C    16.53000069  15.95000076  53.41999817
C    17.51000023  16.06999969  52.44999695
C    18.86000061  15.72000027  52.72999573
C    19.93000031  15.80999947  51.81000137
C    21.12999916  15.34999943  52.16999817
C    21.38999939  14.75999928  53.43000031
C    20.42000008  14.80000019  54.36999893
C    19.12999916  15.21999931  53.99000168
C    15.07999992  16.13999939  53.18999863
C    14.35999966  15.76000023  54.36000061
C    12.98999977  15.72999954  54.43999863
C    22.79000092  14.39000034  53.75999832
H    23.10851097  14.85328865  54.69381714
H    18.39999962  14.82999992  56.02000427
H    17.23999977  16.31000137  51.42000198
H    19.72999954  16.10999870  50.77999878
H    21.90000153  15.54999924  51.44000244
H    20.55999947  14.48999977  55.40000153
H    12.51999950  15.40999985  55.37000275
H    23.35000038  14.60999966  52.84999847
H    22.86000061  13.30000019  53.87000275
