96

S    12.20000076  16.60000038  44.01000214
C     9.55999947  16.95999908  44.71000290
C    10.80000019  16.51000023  45.08999634
C    11.11999989  16.05999947  46.39999771
C    10.14000034  16.01000023  47.30999756
C     8.82999992  16.42000008  47.09000015
C     7.83999968  16.32999992  48.11999893
C     6.56000042  16.77999878  47.88000107
C     6.30999994  17.28000069  46.62000275
C     7.16000032  17.36999893  45.56000137
C     8.52000046  16.97000122  45.72000122
C    12.60000038  15.93999958  46.53999710
C    13.31999969  16.31999969  45.31999969
C    14.70000076  16.40999985  45.28999710
C     4.92999983  17.86000061  46.29000092
H     4.42700386  17.11290169  45.67604828
H     9.32999992  17.28000069  43.69999695
H    10.32999992  15.55999947  48.27999878
H     8.14999962  16.04999924  49.12000275
H     5.79999971  16.76000023  48.64999771
H     6.77999973  17.68000031  44.59000015
H    15.21999931  16.54999924  44.34999847
H     4.36999989  18.09999847  47.21000290
H     5.09000015  18.81999969  45.79000092
S    15.76000023  15.03000069  48.85000229
C    18.48999977  14.78000069  48.11999893
C    17.17000008  15.15999985  47.81000137
C    16.86000061  15.73999977  46.55000305
C    17.87999916  15.90000057  45.58000183
C    19.19999886  15.47999954  45.87999725
C    20.19000053  15.57999992  44.88999939
C    21.50000000  15.18000031  45.25000000
C    21.84000015  14.78999996  46.58000183
C    20.82999992  14.46000004  47.48000336
C    19.52000046  14.88999939  47.15000153
C    15.42000008  16.01000023  46.42000198
C    14.68000031  15.60999966  47.56999969
C    13.32999992  15.59000015  47.64999771
C    23.26000023  14.40999985  46.86999893
H    23.66328430  14.97171783  47.71257782
H    18.56999969  14.28999996  49.08000183
H    17.57999992  16.38000107  44.65000153
H    19.86999893  16.01000023  43.94000244
H    22.21999931  15.08999920  44.43999863
H    21.02000046  14.06000042  48.47000122
H    12.86999893  15.65000057  48.62999725
H    23.78000069  14.68999958  45.94999695
H    23.29999924  13.31999969  46.97000122
S    11.59999943  17.19000053  50.93999863
C     8.94999981  17.50000000  51.81000137
C    10.22999954  17.05999947  52.05999756
C    10.65999985  16.56999969  53.31999969
C     9.70000076  16.36999893  54.29999924
C     8.34000015  16.72999954  54.05000305
C     7.36000013  16.54000092  55.06999969
C     6.00000000  16.72999954  54.79999924
C     5.58000040  17.28999901  53.59000397
C     6.57999992  17.69000053  52.65999603
C     7.94000053  17.27000046  52.81000137
C    12.09000015  16.28999901  53.36999893
C    12.76999950  16.63999939  52.14000320
C    14.09999943  16.52000046  52.06999969
C     4.11999989  17.34000015  53.26000214
H     3.82837749  16.98108101  52.27296829
H     8.69999981  18.06999969  50.93000031
H     9.94999981  15.90999985  55.26000214
H     7.71000004  16.06999969  55.97999954
H     5.27999973  16.42000008  55.54000092
H     6.37000036  18.30000114  51.79000092
H    14.57999992  16.55999947  51.09000397
H     3.54999995  16.69000053  53.94000244
H     3.71000004  18.35000038  53.37999725
S    15.25000000  15.21000004  55.63000107
C    17.93000031  14.81999969  54.86000061
C    16.64999962  15.29999924  54.58000183
C    16.31999969  15.95000076  53.30999756
C    17.36999893  16.10000038  52.41000366
C    18.65999985  15.54999924  52.64999771
C    19.67000008  15.72999954  51.65000153
C    20.88000107  15.19999981  51.88000107
C    21.14000130  14.46000004  53.11000061
C    20.13999939  14.28999996  54.02999878
C    18.89000130  14.85000038  53.88000107
C    14.91000080  16.15999985  53.18000031
C    14.23999977  15.88000107  54.34000015
C    12.89000034  15.93999958  54.41999817
C    22.57999802  13.99000072  53.37999725
H    23.06330681  14.61976528  54.12693024
H    18.05999947  14.30999947  55.81999969
H    17.17000008  16.57999992  51.45999908
H    19.40999985  16.13000107  50.68000031
H    21.67000008  15.10000038  51.13999939
H    20.42000008  13.78999901  54.94999695
H    12.42000008  15.67999935  55.37000275
H    23.15000153  13.81999969  52.45999908
H    22.43000031  13.03999996  53.89999771
