96

S    12.18000031  17.10000038  44.25000000
C     9.48000050  17.35999870  45.00000000
C    10.72999954  16.87000084  45.20999908
C    10.98999977  16.22999954  46.50000000
C     9.88000011  15.95000076  47.41000366
C     8.61999989  16.39999962  47.14000320
C     7.63999987  16.28999901  48.11999893
C     6.39999962  16.77000046  47.87000275
C     6.09000015  17.43000031  46.69000244
C     7.09000015  17.54999924  45.70000076
C     8.38000011  17.05000114  45.86000061
C    12.39999962  16.03999901  46.76000214
C    13.15999985  16.56999969  45.65999985
C    14.57999992  16.52000046  45.65999985
C     4.69999981  17.77000046  46.25000000
H     4.36043835  17.02013397  45.53550720
H     9.35999966  18.06999969  44.18000031
H    10.18000031  15.53999996  48.36999893
H     8.01000023  15.80000019  49.02000046
H     5.61999989  16.45000076  48.55999756
H     6.80999994  18.18000031  44.86000061
H    15.21000004  16.92000008  44.86000061
H     3.98999977  18.05999947  47.02999878
H     4.75000000  18.71000099  45.70000076
S    15.44000053  15.03999901  49.22000122
C    18.22000122  14.78000069  48.54999924
C    16.93000031  15.24000072  48.26000214
C    16.62999916  15.75000000  46.98999786
C    17.61999893  15.88000107  46.10000229
C    18.92000008  15.53999996  46.38000107
C    19.89999962  15.57999992  45.38999939
C    21.17000198  15.01000023  45.59999847
C    21.51000023  14.53999996  46.90000153
C    20.55999947  14.40000057  47.84000015
C    19.25000000  14.93999958  47.62000275
C    15.25000000  15.90999985  46.76000214
C    14.42999935  15.52000046  47.88000107
C    13.02999973  15.53999996  47.87000275
C    22.90999985  14.18000031  47.29000092
H    23.33711433  14.79616547  48.08121109
H    18.38999939  14.14000034  49.41999817
H    17.52000046  16.31999969  45.12000275
H    19.48999977  15.80000019  44.40999985
H    21.76000214  14.93000031  44.69999695
H    20.81000137  13.86999989  48.75999832
H    12.48000050  15.05000019  48.67000198
H    23.57999992  14.14000034  46.42000198
H    22.76000023  13.12000084  47.52999878
S    16.11999893  12.48000050  52.37999725
C    18.77000046  11.84000015  51.70000076
C    17.40999985  11.78999996  51.43000031
C    16.94000053  11.35000038  50.19000244
C    17.88999939  10.88999939  49.31000137
C    19.30999947  10.86999989  49.55999756
C    20.17999840  10.44000053  48.57999802
C    21.54000092  10.36000061  48.83999634
C    22.06999969  10.85999966  50.06999969
C    21.18000031  11.28000069  51.03000259
C    19.78000069  11.28000069  50.79999924
C    15.50000000  11.69000053  49.95999908
C    14.89999962  12.20999908  51.11999893
C    13.53000069  12.46000099  51.23000336
C    23.48999977  10.51000023  50.43000031
H    23.70591736  10.99058723  51.38420868
H    19.15999985  12.31999969  52.58999634
H    17.53000069  10.46000004  48.39000320
H    19.78999901  10.18000031  47.60000229
H    22.15999985  10.03999901  48.01000214
H    21.42999840  11.59999943  52.04000092
H    13.14000034  12.97999954  52.09999847
H    23.57000160   9.42000008  50.43000031
H    24.13999939  11.02000046  49.72000122
S    12.27000046  11.98999977  47.55000305
C     9.61000061  12.72999954  48.26000214
C    10.88999939  12.58999920  48.60000229
C    11.44000053  12.69000053  49.92000198
C    10.54999924  13.07999992  50.90999985
C     9.15999985  13.30999947  50.63999939
C     8.23000050  13.76999950  51.59000015
C     6.86999989  13.78000069  51.40999603
C     6.38000011  13.56999969  50.11000061
C     7.28999996  13.27999973  49.12000275
C     8.73999977  13.05999947  49.31999969
C    12.79999924  12.30999947  50.07999802
C    13.40000057  11.92000008  48.87000275
C    14.77000046  11.65999985  48.74000168
C     4.90000010  13.75000000  49.82999802
H     4.72174692  13.54322529  48.77473831
H     9.18000031  12.28000069  47.36000061
H    11.00999928  13.28999996  51.86999893
H     8.69000053  13.97999954  52.55000305
H     6.23000050  14.00000000  52.25999832
H     6.80000019  13.01000023  48.18999863
H    15.21000004  11.13999939  47.88999939
H     4.55999994  14.77000046  50.01999664
H     4.26999998  13.17000008  50.51000214
