96

S    12.79999924  17.14999962  44.43999863
C     9.98999977  17.17000008  45.00999832
C    11.25000000  16.77000046  45.27000046
C    11.52999973  16.05999947  46.53999710
C    10.50000000  15.77999973  47.42000198
C     9.18000031  16.29999924  47.09999847
C     8.10999966  16.27000046  48.02999878
C     6.85999966  16.77999878  47.77999878
C     6.58999968  17.23999977  46.47999573
C     7.63000011  17.29999924  45.58000183
C     8.93000031  16.87000084  45.86000061
C    13.02000046  15.93000031  46.75000000
C    13.76999950  16.47999954  45.72999954
C    15.14000034  16.29999924  45.58000183
C     5.23000002  17.71999931  46.06999969
H     4.90199327  17.23845673  45.14878845
H     9.72000027  17.67000008  44.08000183
H    10.71000004  15.32999992  48.39000320
H     8.22000027  15.62000084  48.88999939
H     6.05999994  16.69000053  48.50999832
H     7.42000008  17.89999962  44.69999695
H    15.70000076  16.76000023  44.75999832
H     4.53000021  17.39999962  46.84999847
H     5.14999962  18.81000137  45.98999786
S    16.15999985  15.11000061  49.26000214
C    18.92000008  14.80000019  48.50000000
C    17.59000015  15.14999962  48.15000153
C    17.28000069  15.59000015  46.84999847
C    18.27999878  15.73999977  45.90999985
C    19.55000114  15.34999943  46.22000122
C    20.65000153  15.32999992  45.20999908
C    21.87999916  14.80999947  45.54000092
C    22.23999977  14.52999973  46.86999893
C    21.24000168  14.52999973  47.85999680
C    19.88000107  14.91000080  47.54000092
C    15.78999996  15.73999977  46.70000076
C    15.10000038  15.44000053  47.85999680
C    13.64999962  15.40999985  47.88000107
C    23.64000130  14.22000027  47.25000000
H    23.87513924  14.69027519  48.20480347
H    19.11000061  14.27999973  49.43999863
H    18.02000046  15.88000107  44.86999893
H    20.35000038  15.72999954  44.23999786
H    22.60000038  14.59000015  44.75999832
H    21.42999840  14.29999924  48.89999771
H    13.01000023  15.11000061  48.69999695
H    24.37999916  14.42999935  46.46999741
H    23.71999931  13.14000034  47.41000366
S    11.69999981  16.63999939  50.75000000
C     9.06000042  17.09000015  51.52000046
C    10.29000092  16.55999947  51.81000137
C    10.57000065  16.03000069  53.09000015
C     9.64999962  15.93999958  54.09999847
C     8.32999992  16.35000038  53.77999878
C     7.34000015  16.27000046  54.68000031
C     6.03999996  16.69000053  54.34999847
C     5.78999996  17.29999924  53.11999893
C     6.70000029  17.20999908  52.12999725
C     8.01000023  16.79000092  52.43999863
C    12.02999973  15.77000046  53.22000122
C    12.76999950  16.11999893  52.04000092
C    14.19000053  16.10999870  52.06999969
C     4.42999983  17.79999924  52.77999878
H     4.05848551  17.22208786  51.93377304
H     8.82999992  17.45000076  50.52000046
H    10.05000019  15.57999992  55.05000305
H     7.63000011  15.88999939  55.65999985
H     5.32999992  16.70999908  55.17000198
H     6.61999989  17.61999893  51.12999725
H    14.73999977  16.31999969  51.16000366
H     3.78999996  17.82999992  53.66000366
H     4.51000023  18.86000061  52.50000000
S    15.11000061  15.14999962  55.79999924
C    17.80999947  14.70000076  55.20999908
C    16.54000092  15.11999989  54.85000229
C    16.28000069  15.52999973  53.54000092
C    17.30999947  15.53999996  52.62000275
C    18.64999962  15.18000031  52.91999817
C    19.67000008  15.17000008  51.97000122
C    20.89999962  14.73999977  52.29999924
C    21.14999962  14.32999992  53.60000229
C    20.17999840  14.35999966  54.54000092
C    18.86999893  14.70999908  54.25000000
C    14.86999989  15.80000019  53.27999878
C    14.14000034  15.54999924  54.41999817
C    12.71999931  15.43000031  54.40000153
C    22.53000069  14.01000023  54.02000046
H    22.84579659  14.58544827  54.89019012
H    18.01000023  14.30999947  56.19999695
H    17.13000107  15.88000107  51.60999680
H    19.48999977  15.59999943  50.98999786
H    21.73999977  14.81999969  51.62000275
H    20.34000015  14.04999924  55.56999969
H    12.20000076  15.19000053  55.31999969
H    23.19000053  14.22999954  53.16999817
H    22.53000069  12.94000053  54.23999786
