96

S    12.02000046  16.03000069  44.20000076
C     9.43000031  16.27000046  44.82999802
C    10.67000008  15.84000015  45.19000244
C    10.95999908  15.39000034  46.49000168
C     9.90999985  15.38000011  47.39999771
C     8.63000011  15.95999908  47.14000320
C     7.60999966  16.01000023  48.08000183
C     6.32000017  16.47999954  47.70999908
C     6.07999992  17.04000092  46.38999939
C     7.13000011  17.07999992  45.45000076
C     8.38999939  16.44000053  45.79999924
C    12.35999966  15.14000034  46.70000076
C    13.12999916  15.57000065  45.54999924
C    14.52000046  15.53999996  45.52000046
C     4.69000006  17.53000069  45.98999786
H     4.26275969  16.84506035  45.25759125
H     9.15000057  16.77000046  43.90999603
H    10.01000023  15.03999901  48.41999817
H     7.65999985  15.54999924  49.06000137
H     5.44000053  16.28000069  48.30999756
H     6.91999960  17.43999863  44.43999863
H    14.94999981  15.85999966  44.58000183
H     4.07000017  17.53999901  46.88999939
H     4.79999971  18.53000069  45.54000092
S    15.62000084  14.55000019  49.13999939
C    18.34000015  14.22000027  48.55999756
C    17.02999878  14.45000076  48.15999985
C    16.62999916  14.70999908  46.77999878
C    17.70000076  14.94999981  45.89000320
C    19.04999924  14.73000050  46.32999802
C    20.13999939  15.00000000  45.47999954
C    21.42999840  14.73999977  45.80999756
C    21.70999908  14.13000011  47.05999756
C    20.69000053  14.01999950  47.95999908
C    19.40000153  14.30999947  47.63999939
C    15.19000053  14.98999977  46.63999939
C    14.47999954  14.70000076  47.81000137
C    13.09999943  14.80000019  47.88999939
C    23.11000061  13.94999981  47.43000031
H    23.41929245  14.40362835  48.37162781
H    18.56999969  13.89999962  49.56999969
H    17.45000076  15.44999981  44.94999695
H    19.79999924  15.65000057  44.68000031
H    22.22999954  15.10000038  45.17000198
H    21.01000023  13.67000008  48.94000244
H    12.56000042  14.68000031  48.82999802
H    23.71999931  14.34999943  46.60999680
H    23.43000031  12.89999962  47.39999771
S    11.90000057  16.36000061  50.56000137
C     9.22999954  16.68000031  51.25999832
C    10.47999954  16.31999969  51.63000107
C    10.80999947  15.85999966  52.97999954
C     9.81000042  15.80999947  53.93000031
C     8.47999954  16.34000015  53.57999802
C     7.40999985  16.23999977  54.52999878
C     6.14000034  16.54999924  54.18000031
C     5.92000008  17.21999931  52.90999985
C     6.88000011  17.21999931  51.93000031
C     8.23000050  16.77000046  52.25000000
C    12.30999947  15.65000057  53.16999817
C    13.00000000  15.92000008  51.90999985
C    14.37000084  15.88999939  51.95999908
C     4.46999979  17.56000137  52.56999969
H     4.10739088  17.00158310  51.70698929
H     9.02000046  17.01000023  50.25000000
H     9.86999989  15.08999920  54.73999786
H     7.60999966  15.77999973  55.50000000
H     5.27999973  16.23999977  54.75999832
H     6.67999983  17.60000038  50.93000031
H    14.91000080  16.20000076  51.06999969
H     3.84999990  17.32999992  53.44999695
H     4.36999989  18.61999893  52.30999756
S    15.43000031  15.22999954  55.72999954
C    18.02999878  14.63999939  55.02999878
C    16.82999992  15.22999954  54.68999863
C    16.56999969  15.55999947  53.34000015
C    17.57999992  15.57999992  52.45999908
C    18.89999962  15.26999950  52.80000305
C    19.97999954  15.13000011  51.95000076
C    21.18000031  14.60000038  52.32999802
C    21.42999840  14.27999973  53.66000366
C    20.38999939  14.37999916  54.54000092
C    19.10000038  14.80999947  54.09999847
C    15.11000061  15.67000008  53.13999939
C    14.37999916  15.55999947  54.34000015
C    13.00000000  15.47000027  54.33000183
C    22.84000015  13.96000004  54.10999680
H    23.09950447  14.52108669  55.00774002
H    18.12999916  13.96999931  55.87999725
H    17.28000069  15.70000076  51.42000198
H    19.88000107  15.57000065  50.94999695
H    21.98999786  14.68000031  51.60999680
H    20.46999931  14.29999924  55.61999893
H    12.39999962  15.53999996  55.24000168
H    23.62999916  14.19999981  53.37999725
H    22.92000008  12.88000011  54.23999786
