96

S    12.20999908  16.56999969  44.51000214
C     9.53999996  17.11000061  45.27999878
C    10.77999973  16.61000061  45.58000183
C    11.05999947  16.00000000  46.83000183
C    10.01000023  15.98000050  47.80000305
C     8.71000004  16.61000061  47.56000137
C     7.51999950  16.48999977  48.40000153
C     6.26999950  16.84999847  48.00000000
C     6.10000038  17.36999893  46.72000122
C     7.18999958  17.57999992  45.84999847
C     8.48999977  17.13999939  46.25000000
C    12.46000099  15.62999916  46.97000122
C    13.22000027  15.95000076  45.80999756
C    14.60999966  15.93000031  45.79999924
C     4.67000008  17.65999985  46.22000122
H     4.38455105  17.03914833  45.37078857
H     9.40999985  17.30999947  44.22000122
H    10.07999992  15.19000053  48.54000092
H     7.68000031  16.04999924  49.38000107
H     5.40000010  16.82999992  48.63999939
H     7.11000013  17.89999962  44.80999756
H    15.21000004  16.20000076  44.93999863
H     3.89999986  17.46999931  46.97000122
H     4.59000015  18.73999977  46.03000259
S    15.77000046  14.91000080  49.47999954
C    18.46999931  14.45000076  48.61999893
C    17.15999985  14.85999966  48.36000061
C    16.79999924  15.27999973  47.08000183
C    17.88999939  15.47000027  46.12999725
C    19.18000031  15.03999901  46.36000061
C    20.15000153  15.21999931  45.37000275
C    21.40999985  14.80999947  45.56999969
C    21.80000114  14.19000053  46.79000092
C    20.86000061  13.96999931  47.83000183
C    19.48999977  14.46000004  47.60000229
C    15.34999943  15.52999973  46.91999817
C    14.61999989  15.19000053  48.09999847
C    13.23999977  15.25000000  48.09000015
C    23.21000099  13.97999954  46.98999786
H    23.54438019  14.27076244  47.98586273
H    18.79999924  14.06999969  49.58000183
H    17.57999992  16.00000000  45.24000168
H    19.78999901  15.64000034  44.43999863
H    22.21999931  15.14000034  44.93999863
H    21.18000031  13.63000011  48.81000137
H    12.68000031  15.18000031  49.02999878
H    23.65999985  14.55000019  46.17000198
H    23.36999893  12.92000008  46.75000000
S    15.85999966  12.55000019  52.16999817
C    18.45999908  11.85999966  51.52000046
C    17.12000084  11.85999966  51.18999863
C    16.65999985  11.46999931  49.87999725
C    17.57999992  11.11999989  48.92000198
C    18.96000099  10.97000027  49.29000092
C    19.93999863  10.60999966  48.36999893
C    21.28000069  10.60999966  48.70999908
C    21.75000000  10.95000076  50.00000000
C    20.81000137  11.35000038  50.90999985
C    19.40000153  11.36999989  50.63000107
C    15.18000031  11.71000004  49.77000427
C    14.59000015  12.35999966  50.90999985
C    13.22999954  12.71999931  50.97999954
C    23.18000031  10.62000084  50.34999847
H    23.40656853  10.73693943  51.40975952
H    18.72999954  12.25000000  52.49000168
H    17.35999870  11.05999947  47.84999847
H    19.65999985  10.21000004  47.39999771
H    22.04000092  10.22999954  48.04000092
H    21.09000015  11.56000042  51.93999863
H    12.76000023  13.09999943  51.88000107
H    23.34000015   9.59000015  49.99000168
H    23.81000137  11.31000042  49.78000259
S    11.84000015  11.75000000  47.44999695
C     9.13000011  12.35999966  48.30999756
C    10.50000000  12.31999969  48.54999924
C    11.02000046  12.64000034  49.81999969
C    10.19999981  13.12999916  50.77999878
C     8.78999996  13.30999947  50.58000183
C     7.86000013  13.64999962  51.59999847
C     6.51000023  13.78999901  51.36000061
C     6.02999973  13.48999977  50.04000092
C     6.90000010  12.89000034  49.06999969
C     8.26000023  12.93000031  49.31000137
C    12.46000099  12.44999981  49.86999893
C    13.02000046  11.95000076  48.73000336
C    14.34000015  11.56000042  48.68999863
C     4.57999992  13.80000019  49.72000122
H     4.31109619  13.45325565  48.72222519
H     8.64000034  12.00000000  47.41000366
H    10.53999996  13.53999996  51.72999954
H     8.30999947  13.78000069  52.57999802
H     5.79999971  14.06999969  52.12999725
H     6.52999973  12.42000008  48.15999985
H    14.81999969  11.11999989  47.81000137
H     4.55000019  14.88999939  49.75999832
H     4.00000000  13.22999954  50.45000076
