96

S    12.65999985  16.31000137  44.36000061
C     9.88000011  16.59000015  45.05000305
C    11.17000008  16.15999985  45.41999817
C    11.49000072  15.77999973  46.72000122
C    10.44000053  15.62999916  47.63999939
C     9.11999989  16.02000046  47.29999924
C     8.10000038  16.10999870  48.20000076
C     6.86999989  16.60000038  47.85999680
C     6.56000042  17.13000107  46.60999680
C     7.59000015  17.13999939  45.66999817
C     8.82999992  16.55999947  45.97999954
C    13.00000000  15.67999935  46.86999893
C    13.68000031  15.95000076  45.68000031
C    15.06000042  16.06999969  45.54999924
C     5.13999987  17.61999893  46.27999878
H     4.87614536  17.19783211  45.31032944
H     9.64999962  17.15999985  44.15000153
H    10.57999992  15.39999962  48.68999863
H     8.34999943  15.77000046  49.20000076
H     6.03999996  16.36999893  48.54000092
H     7.49000025  17.38999939  44.61999893
H    15.64000034  16.28999901  44.66999817
H     4.39000034  17.31999969  47.02000046
H     5.07999992  18.71000099  46.32999802
S    16.15999985  14.70999908  49.06999969
C    18.84000015  14.63999939  48.44999695
C    17.60000038  14.93999958  48.06999969
C    17.23999977  15.53999996  46.84999847
C    18.25000000  15.71000004  45.89000320
C    19.55000114  15.32999992  46.20999908
C    20.59000015  15.44000053  45.26000214
C    21.87999916  15.03999901  45.52999878
C    22.21999931  14.57999992  46.84999847
C    21.24000168  14.32000065  47.76000214
C    19.88999939  14.67000008  47.44999695
C    15.78999996  15.70000076  46.70999908
C    15.05000019  15.43000031  47.88000107
C    13.66000080  15.46000004  48.01000214
C    23.64000130  14.26000023  47.18999863
H    23.89472961  14.79129410  48.10702515
H    19.05999947  14.47000027  49.50000000
H    18.02999878  16.10000038  44.89999771
H    20.30999947  15.82999992  44.27999878
H    22.63999939  15.19000053  44.77000427
H    21.54999924  13.76000023  48.63999939
H    13.15000057  15.31999969  48.95999908
H    24.34999847  14.55999947  46.40999603
H    23.90999985  13.22000027  47.42000198
S    11.92999935  16.79999924  50.66999817
C     9.42000008  17.20000076  51.45000076
C    10.59000015  16.69000053  51.76000214
C    10.92000008  16.04999924  53.02000046
C     9.98000050  15.98000050  54.02000046
C     8.71999931  16.48999977  53.74000168
C     7.69999981  16.45000076  54.69999695
C     6.48000002  17.14999962  54.52000046
C     6.25999975  17.71999931  53.25000000
C     7.23000002  17.71999931  52.35000229
C     8.46000004  17.10000038  52.51999664
C    12.35999966  15.95999908  53.06000137
C    13.09000015  16.39999962  51.90000153
C    14.47000027  16.35000038  51.81000137
C     4.84000015  18.02999878  52.90000153
H     4.55955553  17.49014282  51.99556351
H     9.38000011  17.78000069  50.54000092
H    10.10000038  15.32999992  54.87999725
H     8.01000023  16.04999924  55.66999817
H     5.82000017  17.25000000  55.37000275
H     7.11999989  18.20999908  51.38999939
H    15.06999969  16.69999886  50.97000122
H     4.09000015  17.90999985  53.68999863
H     4.67999983  19.11000061  52.78999710
S    15.57999992  15.46000004  55.50000000
C    18.27000046  15.14000034  54.89999771
C    17.02999878  15.48999977  54.45000076
C    16.69000053  15.76000023  53.09000015
C    17.72999954  15.84000015  52.18000031
C    19.04999924  15.51000023  52.62000275
C    20.10999870  15.54999924  51.73999786
C    21.35999870  15.18000031  52.12999725
C    21.63999939  14.93000031  53.44999695
C    20.59999847  14.89999962  54.34999847
C    19.30999947  15.11000061  53.95000076
C    15.19999981  15.95999908  52.90000153
C    14.56999969  15.65000057  54.10999680
C    13.15999985  15.71000004  54.19000244
C    23.01000214  14.48999977  53.88000107
H    23.46473694  15.15461636  54.61457443
H    18.51000023  14.94999981  55.93999863
H    17.60000038  16.22999954  51.18000031
H    19.88999939  15.90999985  50.72999954
H    22.19000053  15.10000038  51.44000244
H    20.86999893  14.94999981  55.40999985
H    12.71999931  15.54999924  55.17000198
H    23.59000015  14.46000004  52.94000244
H    22.95000076  13.45999908  54.22999954
