96

S    12.31999969  16.52000046  44.20999908
C     9.75000000  17.09000015  45.00999832
C    10.98000050  16.77999878  45.37000275
C    11.31999969  16.61999893  46.70999908
C    10.26999950  16.57999992  47.67000198
C     9.00000000  16.76000023  47.25000000
C     7.94000053  16.79999924  48.15000153
C     6.67999983  17.10000038  47.77999878
C     6.38999987  17.52000046  46.50000000
C     7.40999985  17.56999969  45.61000061
C     8.71000004  17.11000061  45.90999985
C    12.75000000  16.50000000  46.81999969
C    13.45000076  16.51000023  45.65999985
C    14.80999947  16.32999992  45.70000076
C     4.97000027  17.87999916  46.11000061
H     4.71401596  17.37514114  45.17850113
H     9.52000046  17.52000046  44.03999710
H    10.62999916  16.45000076  48.68000031
H     8.26000023  16.64999962  49.18000031
H     5.88999987  17.28999901  48.50999832
H     7.26999998  18.06999969  44.65000153
H    15.34000015  16.23999977  44.75000000
H     4.28000021  17.61000061  46.91999817
H     4.88000011  18.96999931  45.97999954
S    15.90999985  15.34000015  49.40000153
C    18.57999992  14.75000000  48.52000427
C    17.28999901  15.25000000  48.27000046
C    16.95999908  15.80000019  46.97000122
C    17.94000053  15.92000008  46.00999832
C    19.20999908  15.50000000  46.26999664
C    20.22999954  15.57999992  45.27999878
C    21.45000076  15.07999992  45.43000031
C    21.80999947  14.39000034  46.60999680
C    20.82999992  14.25000000  47.62000275
C    19.52000046  14.84000015  47.49000168
C    15.57000065  16.13000107  46.84000015
C    14.85999966  16.01000023  48.06000137
C    13.43999958  16.21999931  48.06999969
C    23.26999855  14.11999893  46.88999939
H    23.64794922  14.66512012  47.75492477
H    18.84000015  14.46000004  49.52999878
H    17.70000076  16.21000099  44.99000168
H    20.03000069  16.13000107  44.36999893
H    22.18000031  15.26000023  44.64000320
H    20.95000076  13.73000050  48.56999969
H    12.81999969  16.00000000  48.92000198
H    23.92000008  14.29999924  46.02000427
H    23.34000015  13.05999947  47.11999893
S    16.07999992  12.88000011  52.42000198
C    18.75000000  12.09000015  51.68000031
C    17.38999939  12.25000000  51.38999939
C    16.92000008  11.82000065  50.13000107
C    17.85000038  11.26999950  49.22000122
C    19.23999977  11.25000000  49.40999985
C    20.13999939  10.72000027  48.40000153
C    21.40999985  10.46000004  48.81000137
C    21.90999985  10.93000031  50.02999878
C    21.12999916  11.46999931  50.96000290
C    19.72999954  11.61000061  50.68999863
C    15.48999977  12.06999969  49.91000366
C    14.86999989  12.63000011  51.04000092
C    13.61999989  13.07000065  51.03000259
C    23.36999893  10.62999916  50.38000107
H    23.65501213  10.92962933  51.38851166
H    19.10000038  12.67000008  52.52999878
H    17.53999901  11.02000046  48.20999908
H    19.80999947  10.27999973  47.45999908
H    22.07999992   9.80000019  48.25000000
H    21.42000008  11.80999947  51.95000076
H    13.14000034  13.50000000  51.90999985
H    23.57000160   9.55999947  50.27999878
H    24.01000023  11.06999969  49.61000061
S    12.18000031  11.87999916  47.57999802
C     9.50000000  12.50000000  48.20000076
C    10.85000038  12.48999977  48.60000229
C    11.31999969  12.94999981  49.80999756
C    10.36999893  13.34000015  50.66999817
C     8.97999954  13.40999985  50.38999939
C     8.06999969  13.82999992  51.35000229
C     6.77999973  13.96999931  50.98999786
C     6.32000017  13.63000011  49.69999695
C     7.14999962  13.09000015  48.75000000
C     8.57999992  12.98999977  49.06999969
C    12.81000042  12.81999969  49.94999695
C    13.34000015  12.20999908  48.81999969
C    14.65000057  11.75000000  48.76999664
C     4.86999989  13.81000042  49.41999817
H     4.66794777  13.91450977  48.35400009
H     9.31999969  12.32999992  47.14000320
H    10.69000053  13.75000000  51.63000107
H     8.45000076  14.06999969  52.34000397
H     6.14000034  14.29999924  51.79999924
H     6.81999969  12.65999985  47.81000137
H    14.94999981  11.25000000  47.85999680
H     4.55000019  14.73000050  49.92000198
H     4.34999990  12.92000008  49.78000259
