96

S    12.27000046  16.81999969  44.55999756
C     9.48999977  16.87999916  45.13999939
C    10.81999969  16.61999893  45.54000092
C    11.13999939  16.06999969  46.79999924
C    10.10000038  15.75000000  47.68000031
C     8.78000069  16.27000046  47.39999771
C     7.67000008  16.21999931  48.29000092
C     6.43000031  16.69999886  47.91999817
C     6.19999981  17.15999985  46.59999847
C     7.20000029  17.19000053  45.63999939
C     8.50000000  16.84999847  46.09000397
C    12.58999920  15.88000107  46.98999786
C    13.30999947  16.32999992  45.83000183
C    14.70000076  16.51000023  45.87999725
C     4.86999989  17.45000076  46.09000397
H     4.50606155  16.81825829  45.27972412
H     9.32999992  17.21999931  44.12000275
H    10.26000023  15.21999931  48.61000061
H     7.96999979  15.85999966  49.27000046
H     5.63000011  16.82999992  48.63999939
H     7.03999996  17.50000000  44.61000061
H    15.32999992  16.79999924  45.04000092
H     4.18000031  17.36999893  46.95000076
H     4.88000011  18.52000046  45.83000183
S    15.75000000  15.15999985  49.51000214
C    18.45000076  15.01000023  48.75999832
C    17.20000076  15.44999981  48.53000259
C    16.79000092  15.93999958  47.21000290
C    17.76000023  16.07999992  46.23000336
C    19.09000015  15.62000084  46.40999603
C    19.97999954  15.39999962  45.34999847
C    21.25000000  14.89999962  45.58000183
C    21.63999939  14.61999989  46.95999908
C    20.72999954  14.72000027  47.95999908
C    19.44000053  15.07999992  47.72999573
C    15.36999893  15.98000050  47.02000046
C    14.70000076  15.47000027  48.11999893
C    13.26000023  15.48999977  48.15000153
C    23.06999969  14.30999947  47.29999924
H    23.39289284  14.63289356  48.28973770
H    18.86999893  14.67000008  49.71000290
H    17.46999931  16.36999893  45.22999573
H    19.57999992  15.70000076  44.38000107
H    21.97999954  14.70000076  44.79999924
H    21.04000092  14.34999943  48.93000031
H    12.67000008  15.42000008  49.06000137
H    23.74000168  14.72000027  46.53999710
H    23.15000153  13.22000027  47.18999863
S    11.69000053  16.64999962  50.93000031
C     9.02000046  16.90999985  51.46999741
C    10.24000072  16.36999893  51.81999969
C    10.52999973  16.13000107  53.15000153
C     9.59999943  16.09000015  54.13999939
C     8.28999996  16.47999954  53.81000137
C     7.26000023  16.57999992  54.75999832
C     6.02999973  17.19000053  54.48999786
C     5.78999996  17.78000069  53.20999908
C     6.75000000  17.64999962  52.19999695
C     8.02999973  17.01000023  52.47000122
C    11.97999954  16.05999947  53.39000320
C    12.74000072  16.42000008  52.23999786
C    14.13000011  16.34000015  52.16999817
C     4.42000008  18.12999916  52.90999985
H     3.92981672  17.39817619  52.26792908
H     8.93999958  17.50000000  50.56000137
H     9.85999966  15.70000076  55.12000275
H     7.50999975  16.36999893  55.79999924
H     5.36000013  17.25000000  55.34000015
H     6.57999992  17.98999977  51.18000031
H    14.65999985  16.73999977  51.31000137
H     3.81999993  18.27000046  53.81000137
H     4.48999977  19.12999916  52.47000122
S    15.15999985  15.21999931  55.90000153
C    17.79999924  14.98999977  55.25000000
C    16.54999924  15.38000011  54.86000061
C    16.22999954  15.92000008  53.61999893
C    17.27000046  15.95000076  52.70999908
C    18.63000107  15.51000023  52.97999954
C    19.67000008  15.59000015  52.04999924
C    20.95000076  15.29000092  52.35000229
C    21.17000198  14.77000046  53.63999939
C    20.23999977  14.75000000  54.62999725
C    18.90999985  15.14000034  54.33000183
C    14.78000069  16.00000000  53.37999725
C    14.06000042  15.73999977  54.59999847
C    12.63000011  15.73999977  54.61000061
C    22.50999832  14.30999947  53.95999908
H    23.00916100  15.08076382  54.54724503
H    17.98999977  14.65999985  56.26999664
H    17.05999947  16.11999893  51.65999985
H    19.54000092  16.13000107  51.11000061
H    21.71999931  15.21000004  51.58000183
H    20.43000031  14.47999954  55.66999817
H    12.02000046  15.55999947  55.48999786
H    22.98999977  14.09999943  52.98999786
H    22.43000031  13.35999966  54.50000000
