96

S    12.39999962  16.32999992  44.31999969
C     9.78999996  16.65999985  44.95999908
C    11.02000046  16.28000069  45.31000137
C    11.33999920  15.77999973  46.59999847
C    10.38000011  15.78999996  47.63999939
C     9.10000038  16.35000038  47.30999756
C     8.00000000  16.36000061  48.18999863
C     6.71000004  16.77000046  47.85999680
C     6.40999985  17.23999977  46.56999969
C     7.36000013  17.17000008  45.63999939
C     8.73999977  16.77000046  45.96000290
C    12.76000023  15.46000004  46.70000076
C    13.50000000  15.80000019  45.59000015
C    14.85999966  15.65999985  45.44000244
C     4.97000027  17.53999901  46.25999832
H     4.54274082  16.88437653  45.50124359
H     9.63000011  16.95999908  43.92000198
H    10.57000065  15.42000008  48.64999771
H     8.25000000  16.01000023  49.19000244
H     5.88999987  16.67000008  48.55999756
H     7.13000011  17.38999939  44.59999847
H    15.34000015  16.01000023  44.54000092
H     4.28000021  17.47999954  47.11000061
H     4.92999983  18.55999947  45.86000061
S    16.01000023  14.85999966  49.13999939
C    18.64999962  14.60999966  48.36000061
C    17.38999939  14.96999931  48.06000137
C    16.97999954  15.14000034  46.70000076
C    17.97999954  15.39000034  45.77000046
C    19.31999969  15.01999950  46.05999756
C    20.36000061  15.14999962  45.12000275
C    21.63000107  14.65999985  45.47999954
C    21.90999985  14.37999916  46.77000046
C    20.95000076  14.47000027  47.75000000
C    19.63000107  14.65999985  47.39999771
C    15.54999924  15.24000072  46.59000015
C    14.88999939  15.10000038  47.78999710
C    13.50000000  15.14000034  47.87000275
C    23.26999855  13.96999931  47.18000031
H    23.52353477  14.30100536  48.18710327
H    18.88000107  14.25000000  49.36000061
H    17.72999954  15.85999966  44.82999802
H    20.20999908  15.67999935  44.18000031
H    22.29999924  14.55000019  44.62999725
H    21.21000099  14.25000000  48.77999878
H    13.05999947  15.10000038  48.86000061
H    24.06999969  14.22999954  46.47999573
H    23.19999886  12.89000034  47.00000000
S    11.56000042  16.44000053  50.81999969
C     8.96000004  16.79999924  51.59000015
C    10.19999981  16.28000069  51.93000031
C    10.62000084  15.95999908  53.27999878
C     9.61999989  15.86999989  54.25000000
C     8.34999943  16.39999962  53.92000198
C     7.35000038  16.42000008  54.93000031
C     6.07999992  16.92000008  54.75999832
C     5.73000002  17.29999924  53.41999817
C     6.67000008  17.29999924  52.41000366
C     7.96000004  16.81999969  52.62000275
C    12.05999947  15.72000027  53.34999847
C    12.71999931  16.07999992  52.16999817
C    14.09999943  16.02000046  52.06999969
C     4.35999966  17.84000015  53.09000015
H     3.98128486  17.31511497  52.21297455
H     8.85999966  17.39999962  50.68999863
H     9.82999992  15.50000000  55.25000000
H     7.60999966  16.02000046  55.90999985
H     5.33999968  17.10000038  55.52999878
H     6.42000008  17.79000092  51.46999741
H    14.73000050  16.18000031  51.19999695
H     3.68000007  17.71000099  53.94000244
H     4.46000004  18.90999985  52.87000275
S    14.98999977  14.92000008  55.77000046
C    17.64000130  14.57999992  55.26000214
C    16.39000130  14.89999962  54.79999924
C    16.21000099  15.31999969  53.47000122
C    17.28999901  15.36000061  52.62000275
C    18.56999969  14.96999931  53.04999924
C    19.69000053  15.27999973  52.28000259
C    20.88999939  14.75000000  52.61000061
C    21.14000130  14.34000015  53.96999741
C    20.03999901  14.19999981  54.79000092
C    18.76000023  14.52999973  54.38000107
C    14.78999996  15.59000015  53.20000076
C    14.04999924  15.27999973  54.36000061
C    12.69000053  15.24000072  54.47000122
C    22.56000137  14.00000000  54.27000046
H    22.95649719  14.53561974  55.13255692
H    17.86000061  14.15999985  56.23000336
H    17.23999977  15.76000023  51.60999680
H    19.62000084  15.84000015  51.36000061
H    21.80999947  14.88999939  52.04000092
H    20.23999977  13.97999954  55.83000183
H    12.20000076  15.05000019  55.40999985
H    23.16999817  14.25000000  53.39000320
H    22.67000008  12.90999985  54.34000015
