96

S    12.20999908  16.76000023  44.41999817
C     9.44000053  16.80999947  45.07999802
C    10.71000004  16.61000061  45.45000076
C    11.07999992  16.28000069  46.77999878
C    10.10000038  16.22999954  47.65999603
C     8.73999977  16.47999954  47.32999802
C     7.67000008  16.53000069  48.29000092
C     6.38000011  16.86000061  47.97999954
C     6.02999973  17.23999977  46.62000275
C     7.07000017  17.17000008  45.72000122
C     8.36999989  16.82999992  45.98999786
C    12.50000000  16.14999962  46.97000122
C    13.27999973  16.38000107  45.73999786
C    14.61999989  16.20000076  45.59000015
C     4.65999985  17.69000053  46.24000168
H     4.27590704  16.98703766  45.50080109
H     9.22999954  16.98999977  44.02999878
H    10.42000008  16.28000069  48.69999695
H     7.92999983  16.38000107  49.33000183
H     5.69999981  17.01000023  48.81000137
H     7.03999996  17.61999893  44.72999954
H    15.21000004  16.13000107  44.68000031
H     4.07000017  17.61000061  47.15999985
H     4.67000008  18.72999954  45.90000153
S    15.75000000  15.27999973  49.43999863
C    18.36000061  14.75999928  48.52000427
C    17.07999992  15.18000031  48.26000214
C    16.77000046  15.65999985  46.97000122
C    17.75000000  15.86999989  45.97999954
C    19.04999924  15.47999954  46.25999832
C    20.03000069  15.54999924  45.18000031
C    21.35000038  15.27999973  45.51000214
C    21.73000145  14.91000080  46.86999893
C    20.72000122  14.70999908  47.78999710
C    19.37000084  14.96000099  47.56000137
C    15.31999969  15.93999958  46.77000046
C    14.67000008  15.77999973  48.04999924
C    13.27000046  15.88000107  48.15000153
C    23.19000053  14.73999977  47.19999695
H    23.28286552  14.76143074  48.28582382
H    18.63000107  14.14000034  49.36999893
H    17.35000038  16.21999931  45.04000092
H    19.70000076  15.85999966  44.19000244
H    22.11000061  15.39000034  44.73999786
H    20.97999954  14.51000023  48.82999802
H    12.76000023  15.59000015  49.06999969
H    23.68000031  15.54999924  46.63999939
H    23.52000046  13.81000042  46.72000122
S    15.88000107  12.42000008  52.22999954
C    18.54999924  11.97000027  51.55000305
C    17.22999954  12.01000023  51.14999771
C    16.79999924  11.67000008  49.81999969
C    17.64999962  11.31999969  48.80000305
C    19.04000092  11.44999981  49.06999969
C    20.00999832  11.00000000  48.11000061
C    21.30000114  10.88000107  48.47999954
C    21.76000214  11.25000000  49.75000000
C    20.89999962  11.69000053  50.77999878
C    19.52000046  11.77000046  50.45000076
C    15.32999992  11.87999916  49.79000092
C    14.65999985  12.36999989  51.00000000
C    13.31999969  12.57999992  51.13999939
C    23.18000031  10.95000076  50.12000275
H    23.36875725  11.16053772  51.17268753
H    18.89999962  12.20000076  52.55000305
H    17.28000069  11.05999947  47.81000137
H    19.62000084  10.52000046  47.21000290
H    21.97999954  10.34000015  47.83000183
H    21.14999962  11.82999992  51.83000183
H    12.89999962  12.94000053  52.08000183
H    23.26000023   9.85999966  50.01999664
H    23.85999870  11.39000034  49.36999893
S    12.03999996  11.89000034  47.36999893
C     9.39000034  12.30999947  48.29000092
C    10.72999954  12.34000015  48.55999756
C    11.23999977  12.72999954  49.84000397
C    10.38000011  13.21000004  50.84999847
C     9.02000046  13.36999989  50.54000092
C     8.05999947  14.01000023  51.36000061
C     6.81999969  14.17000008  51.00000000
C     6.30999994  13.76000023  49.72000122
C     7.16000032  13.07000065  48.81999969
C     8.56000042  12.93000031  49.22999954
C    12.63000011  12.39999962  49.95999908
C    13.19000053  11.90999985  48.73000336
C    14.56999969  11.64999962  48.68999863
C     4.82999992  14.09000015  49.36999893
H     4.59527302  13.82682037  48.33862305
H     9.02999973  11.89000034  47.35000229
H    10.78999996  13.50999928  51.81000137
H     8.45000076  14.42999935  52.28000259
H     6.15000010  14.63999939  51.72000122
H     6.75000000  12.74000072  47.85999680
H    15.01999950  11.18000031  47.81999969
H     4.61000013  15.15999985  49.45999908
H     4.18000031  13.52000046  50.04000092
