96

S    12.10000038  16.06999969  43.99000168
C     9.40999985  16.51000023  44.77000427
C    10.70000076  16.21000099  45.11000061
C    11.05999947  15.72999954  46.43000031
C    10.03000069  15.65000057  47.37999725
C     8.69999981  16.11999893  47.09999847
C     7.65999985  16.03000069  48.02999878
C     6.44999981  16.67000008  47.76000214
C     6.17999983  17.22999954  46.44000244
C     7.09000015  17.12000084  45.45999908
C     8.39999962  16.55999947  45.72999954
C    12.44999981  15.43000031  46.52999878
C    13.12999916  15.46000004  45.31000137
C    14.48999977  15.55999947  45.25000000
C     4.77999973  17.56000137  46.16000366
H     4.40744686  17.10465813  45.24241638
H     9.31999969  17.02999878  43.81999969
H    10.15999985  15.08999920  48.29999924
H     7.75000000  15.60999966  49.02999878
H     5.59999990  16.59000015  48.41999817
H     6.78999996  17.31999969  44.43000031
H    14.98999977  15.95999908  44.36999893
H     4.13000011  17.14999962  46.93999863
H     4.53000021  18.63000107  46.13999939
S    15.59999943  14.73000050  48.95000076
C    18.30000114  14.34999943  48.25000000
C    17.02000046  14.73999977  47.91999817
C    16.70999908  15.19000053  46.56000137
C    17.78000069  15.26999950  45.66999817
C    19.05999947  14.85999966  45.97000122
C    20.13000107  14.93999958  45.02999878
C    21.38000107  14.52000046  45.34999847
C    21.64999962  14.07999992  46.65000153
C    20.69999886  14.09000015  47.60000229
C    19.34999847  14.42000008  47.27000427
C    15.21000004  15.31999969  46.39999771
C    14.53999996  15.14000034  47.61000061
C    13.17999935  15.14999962  47.69000244
C    22.98999977  13.60999966  47.09999847
H    23.27745056  14.12180138  48.01843643
H    18.44000053  14.02999973  49.27999878
H    17.51000023  15.48999977  44.64000320
H    19.95000076  15.34999943  44.03999710
H    22.20000076  14.61999989  44.65000153
H    20.88999939  13.67000008  48.57999802
H    12.76999950  15.07999992  48.69999695
H    23.74000168  13.80000019  46.32999802
H    22.86999893  12.53000069  47.29999924
S    15.77000046  12.15999985  52.34000397
C    18.45999908  11.63000011  51.38999939
C    17.07999992  11.63000011  51.17000198
C    16.57999992  11.26000023  49.86999893
C    17.50000000  11.03000069  48.86000061
C    18.86999893  10.85999966  49.09999847
C    19.72999954  10.39999962  48.11999893
C    21.05999947  10.21999931  48.41999817
C    21.56999969  10.47000027  49.72000122
C    20.65000153  10.90999985  50.70999908
C    19.29999924  11.05999947  50.40000153
C    15.21000004  11.56999969  49.72999954
C    14.60000038  12.13999939  50.97999954
C    13.36999989  12.67000008  51.00999832
C    22.95999908  10.03999901  50.05000305
H    23.32937813  10.31703377  51.03738022
H    18.86000061  11.87000084  52.36999893
H    17.19000053  10.98999977  47.81999969
H    19.27999878  10.10000038  47.16999817
H    21.71999931   9.80000019  47.65999603
H    20.88999939  11.07999992  51.75000000
H    12.82999992  13.01000023  51.88999939
H    23.03999901   8.97999954  49.80999756
H    23.50000000  10.59999943  49.27000046
S    11.82999992  11.75000000  47.36999893
C     9.26000023  12.20999908  48.22000122
C    10.59999943  12.20000076  48.47999954
C    11.10000038  12.61999989  49.78000259
C    10.19000053  13.02999973  50.70000076
C     8.85000038  13.12999916  50.50000000
C     7.86999989  13.53999996  51.45000076
C     6.52999973  13.57999992  51.14999771
C     6.11999989  13.14000034  49.86999893
C     7.03000021  12.77999973  48.95999908
C     8.43000031  12.68000031  49.22000122
C    12.51999950  12.42000008  49.92000198
C    13.07000065  11.97999954  48.74000168
C    14.45000076  11.72000027  48.57999802
C     4.67999983  13.43999958  49.40999985
H     4.50317812  12.94490051  48.45516586
H     8.75000000  12.02999973  47.28000259
H    10.55999947  13.25000000  51.70999908
H     8.26000023  14.04000092  52.34000397
H     5.80999947  14.15999985  51.72000122
H     6.67999983  12.55000019  47.95000076
H    14.89999962  11.44999981  47.63000107
H     4.55000019  14.52999973  49.41999817
H     3.94000006  13.09000015  50.13000107
