96

S    12.36999989  15.88000107  44.33000183
C     9.70000076  16.31000137  45.00999832
C    10.93999958  15.77000046  45.35999680
C    11.21999931  15.32999992  46.69000244
C    10.11999989  15.31999969  47.56000137
C     8.84000015  15.90999985  47.21000290
C     7.72000027  15.95999908  48.06999969
C     6.48999977  16.54999924  47.72999573
C     6.32000017  17.13000107  46.45000076
C     7.40999985  17.04000092  45.56000137
C     8.69000053  16.45000076  45.97000122
C    12.69999981  15.17000008  46.88000107
C    13.43000031  15.46000004  45.70000076
C    14.78000069  15.55999947  45.65000153
C     4.92999983  17.68000031  45.96000290
H     4.56673193  17.02885818  45.16492462
H     9.73999977  16.90000153  44.09999847
H    10.14000034  14.80999947  48.50999832
H     7.86000013  15.48999977  49.03999710
H     5.69999981  16.61999893  48.47000122
H     7.31999969  17.30999947  44.51000214
H    15.40999985  15.55999947  44.75999832
H     4.19000006  17.63000107  46.77000046
H     5.00000000  18.71000099  45.59999847
S    15.95000076  15.01999950  49.36000061
C    18.60000038  14.65000057  48.54999924
C    17.34000015  14.89999962  48.23999786
C    16.95999908  15.15999985  46.90999985
C    17.88999939  15.21000004  45.97999954
C    19.22999954  14.96000099  46.18999863
C    20.15000153  14.85000038  45.14999771
C    21.42000008  14.55999947  45.48999786
C    21.90000153  14.42999935  46.84000015
C    20.98999977  14.50000000  47.88000107
C    19.63999939  14.65000057  47.52999878
C    15.48999977  15.27999973  46.83000183
C    14.81999969  15.13000011  48.02000046
C    13.42000008  15.06999969  48.06999969
C    23.39999962  14.51000023  47.16999817
H    23.63781357  14.54497242  48.23316193
H    18.94000053  14.40000057  49.54999924
H    17.56000137  15.27999973  44.93999863
H    19.78000069  14.80999947  44.13000107
H    22.20000076  14.55000019  44.73999786
H    21.21999931  14.27999973  48.92000198
H    12.90999985  14.80000019  48.99000168
H    23.88000107  15.36999893  46.70000076
H    23.81999969  13.60999966  46.70999908
S    11.63000011  16.28000069  50.93999863
C     8.88000011  16.65999985  51.69000244
C    10.18000031  16.31000137  52.05999756
C    10.62999916  16.13000107  53.40000153
C     9.63999939  16.18000031  54.43999863
C     8.25000000  16.43000031  54.12000275
C     7.16000032  16.39999962  55.01999664
C     5.84000015  16.56999969  54.65999985
C     5.51999998  17.00000000  53.29999924
C     6.54999971  17.04000092  52.39999771
C     7.90000010  16.72999954  52.72999573
C    12.07999992  15.98999977  53.47999954
C    12.74000072  16.13000107  52.25999832
C    14.11000061  16.25000000  52.14000320
C     4.07000017  17.28999901  52.84999847
H     3.75375795  16.74576950  51.96010971
H     8.60999966  16.98999977  50.68999863
H     9.85000038  15.78999996  55.43000031
H     7.44000006  16.20000076  56.05999756
H     5.03999996  16.61000061  55.40000153
H     6.42000008  17.29999924  51.35000229
H    14.60999966  16.47999954  51.20999908
H     3.38999987  17.17000008  53.69999695
H     4.11000013  18.38999939  52.77999878
S    15.22999954  15.24000072  55.76000214
C    17.97000122  15.08999920  55.08999634
C    16.68000031  15.40999985  54.78000259
C    16.29999924  15.82999992  53.47000122
C    17.30999947  16.04999924  52.50999832
C    18.61999893  15.73999977  52.81999969
C    19.67000008  15.77000046  51.90999985
C    20.97999954  15.51000023  52.15999985
C    21.31000137  14.92000008  53.46000290
C    20.29000092  14.72000027  54.38000107
C    18.95000076  15.08999920  54.06000137
C    14.88999939  15.98000050  53.27999878
C    14.22000027  15.69000053  54.43999863
C    12.84000015  15.75000000  54.59999847
C    22.80999947  14.70999908  53.79000092
H    22.99859047  15.03640556  54.81274033
H    18.15999985  14.51000023  55.98999786
H    16.95000076  16.32999992  51.52999878
H    19.45000076  16.14999962  50.91999817
H    21.73000145  15.84000015  51.45000076
H    20.45000076  14.35999966  55.38999939
H    12.35999966  15.67999935  55.58000183
H    23.43000031  15.26999950  53.09000015
H    23.02000046  13.63999939  53.62999725
