96

S    12.34000015  16.56999969  44.10999680
C     9.63000011  16.80999947  44.85000229
C    10.90999985  16.38000107  45.10000229
C    11.33999920  15.95999908  46.47999573
C    10.34999943  15.80999947  47.41000366
C     9.00000000  16.03000069  47.14000320
C     8.06999969  16.11999893  48.20000076
C     6.78999996  16.63999939  47.95999908
C     6.34999990  17.01000023  46.62000275
C     7.30000019  17.02999878  45.61000061
C     8.64999962  16.55999947  45.79999924
C    12.76999950  15.81999969  46.70999908
C    13.40999985  16.06999969  45.47000122
C    14.80999947  16.10000038  45.51000214
C     4.94999981  17.52000046  46.40999603
H     4.57724333  17.12653542  45.46430206
H     9.39999962  17.38000107  43.95999908
H    10.62999916  15.59999943  48.43999863
H     8.40999985  15.90999985  49.20999908
H     6.23000050  16.82999992  48.86000061
H     7.00000000  17.50000000  44.66999817
H    15.26999950  16.34000015  44.54999924
H     4.33999968  17.13000107  47.23999786
H     4.90000010  18.60999870  46.37000275
S    15.85000038  14.81999969  49.13000107
C    18.53999901  14.70000076  48.50999832
C    17.29999924  15.17000008  48.15000153
C    16.95999908  15.65000057  46.84999847
C    18.04999924  15.76000023  45.96000290
C    19.31999969  15.14000034  46.25999832
C    20.38000107  15.06999969  45.34000015
C    21.60000038  14.55000019  45.77000046
C    21.83000183  13.88000011  46.97999954
C    20.78000069  13.94000053  47.88000107
C    19.57999992  14.63999939  47.54000092
C    15.52000046  15.75000000  46.65999985
C    14.80999947  15.34999943  47.80000305
C    13.43000031  15.50000000  47.84999847
C    23.19000053  13.43999958  47.43999863
H    23.41293144  13.74922562  48.46116638
H    18.75000000  14.26000023  49.47999954
H    17.86999893  16.05999947  44.93000031
H    20.22000122  15.44000053  44.34000015
H    22.43999863  14.61999989  45.08999634
H    20.76999855  13.53000069  48.88999939
H    12.86000061  15.14000034  48.68999863
H    23.95999908  13.81999969  46.76000214
H    23.21000099  12.35000038  47.35000229
S    16.14999962  12.43000031  52.23999786
C    18.71000099  11.72000027  51.55000305
C    17.43000031  11.73999977  51.17000198
C    16.97999954  11.32999992  49.93000031
C    17.93000031  10.98000050  48.99000168
C    19.32999992  11.02000046  49.29999924
C    20.32999992  10.57999992  48.36000061
C    21.54000092  10.18000031  48.83999634
C    22.04000092  10.54999924  50.12000275
C    21.11000061  11.09000015  51.03000259
C    19.70000076  11.28999901  50.63999939
C    15.52000046  11.56000042  49.72000122
C    14.96000099  12.11999989  50.93000031
C    13.63999939  12.55000019  50.91999817
C    23.45000076  10.15999985  50.47999954
H    23.70384979  10.56615734  51.45912933
H    19.00000000  12.10000038  52.51999664
H    17.64000130  10.65999985  48.00000000
H    19.96999931  10.18000031  47.42000198
H    22.30999947   9.77000046  48.20000076
H    21.30000114  11.23999977  52.09000015
H    13.12999916  13.01000023  51.76000214
H    23.52999878   9.06999969  50.47000122
H    23.97999954  10.62000084  49.64000320
S    12.23999977  11.77999973  47.27000427
C     9.63000011  12.30000019  48.01000214
C    10.95999908  12.36999989  48.30999756
C    11.43000031  12.77999973  49.61999893
C    10.53999996  13.14000034  50.56000137
C     9.13999939  12.94999981  50.34000015
C     8.11999989  13.15999985  51.37000275
C     6.76000023  13.23999977  51.06999969
C     6.39999962  12.97000027  49.73999786
C     7.27999973  12.63000011  48.74000168
C     8.65999985  12.56999969  49.03999710
C    12.84999943  12.46999931  49.75000000
C    13.47000027  11.97000027  48.54999924
C    14.78999996  11.56000042  48.52000427
C     5.00000000  13.38999939  49.34000015
H     4.74670601  13.12946892  48.31234741
H     9.38000011  12.00000000  47.00000000
H    10.97000027  13.47000027  51.50000000
H     8.43999958  13.28999996  52.39999771
H     5.92999983  13.53999996  51.69000244
H     6.93000031  12.61999989  47.70999908
H    15.10000038  11.23999977  47.51999664
H     5.00000000  14.47999954  49.25000000
H     4.28000021  13.10999966  50.12000275
