96

S    12.15000057  16.56999969  44.40000153
C     9.47000027  16.47999954  45.05000305
C    10.77000046  16.32999992  45.44000244
C    11.13000011  15.98000050  46.81000137
C    10.14999962  15.60999966  47.69000244
C     8.80000019  15.90000057  47.38999939
C     7.71000004  15.75000000  48.26000214
C     6.44999981  16.13000107  47.97000122
C     6.14000034  16.68000031  46.72000122
C     7.16000032  16.75000000  45.77999878
C     8.48999977  16.43000031  46.05999756
C    12.60000038  15.97000027  46.97999954
C    13.27999973  16.21000099  45.68999863
C    14.68000031  16.09000015  45.63000107
C     4.78999996  17.04000092  46.35000229
H     4.49957991  16.62615013  45.38434982
H     9.31999969  16.94000053  44.08000183
H    10.34000015  15.11000061  48.62999725
H     7.90999985  15.36000061  49.26000214
H     5.65000010  16.06999969  48.69999695
H     6.86999989  16.98999977  44.75999832
H    15.19000053  16.35000038  44.71000290
H     4.13999987  16.70999908  47.16999817
H     4.73000002  18.13999939  46.30000305
S    15.80999947  14.89999962  49.27999878
C    18.43000031  14.70999908  48.52000427
C    17.20000076  15.01999950  48.16999817
C    16.82999992  15.44999981  46.86000061
C    17.79999924  15.77000046  45.93999863
C    19.12999916  15.38000011  46.22000122
C    20.15999985  15.55999947  45.33000183
C    21.47999954  15.25000000  45.79000092
C    21.70999908  14.61999989  47.01000214
C    20.71000099  14.37000084  47.88000107
C    19.43000031  14.82999992  47.54000092
C    15.39999962  15.59000015  46.72999954
C    14.75999928  15.44000053  47.98999786
C    13.40000057  15.65000057  48.09000015
C    23.16999817  14.17000008  47.36000061
H    23.43859673  14.45273495  48.37784958
H    18.56999969  14.28999996  49.51000214
H    17.46000099  15.95999908  44.93000031
H    19.90999985  15.80999947  44.29999924
H    22.25000000  15.19999981  45.01999664
H    20.81000137  13.86000061  48.83999634
H    12.82999992  15.21999931  48.90999603
H    23.72999954  14.57999992  46.51000214
H    23.19999886  13.09000015  47.14000320
S    11.82999992  16.76000023  50.97000122
C     9.02000046  16.72000122  51.45999908
C    10.34999943  16.48999977  51.86999893
C    10.65000057  16.00000000  53.16999817
C     9.56999969  15.77999973  54.09999847
C     8.23999977  16.02000046  53.68000031
C     7.11000013  16.09000015  54.65999985
C     5.92000008  16.56999969  54.33000183
C     5.66999960  17.09000015  53.06999969
C     6.67000008  17.17000008  52.11999893
C     7.97999954  16.60000038  52.39999771
C    12.07999992  15.88000107  53.40999985
C    12.81999969  16.09000015  52.22000122
C    14.19000053  16.15999985  52.25999832
C     4.35999966  17.69000053  52.67000198
H     3.86333108  17.20712852  51.82842255
H     8.71000004  17.09000015  50.48999786
H     9.77999973  15.52000046  55.13000107
H     7.34000015  15.90999985  55.70999908
H     5.22000027  16.79000092  55.13000107
H     6.47000027  17.71000099  51.19999695
H    14.85999966  16.68000031  51.58000183
H     3.61999989  17.47999954  53.44999695
H     4.44999981  18.77000046  52.48000336
S    15.26999950  15.36000061  55.94999695
C    17.97000122  15.14000034  55.31999969
C    16.70999908  15.50000000  54.94999695
C    16.32999992  15.67000008  53.54999924
C    17.29999924  15.59000015  52.62000275
C    18.63999939  15.21000004  52.95999908
C    19.57999992  15.01000023  51.97999954
C    20.88999939  14.55999947  52.29000092
C    21.27000046  14.46000004  53.63999939
C    20.32999992  14.65000057  54.65000153
C    18.98999977  14.96999931  54.31000137
C    14.85000038  15.78999996  53.40000153
C    14.11000061  15.52999973  54.55999756
C    12.72999954  15.65999985  54.61000061
C    22.73999977  14.26000023  53.95999908
H    23.00976944  14.55106735  54.97518539
H    18.11000061  14.61999989  56.26999664
H    17.09000015  15.80000019  51.58000183
H    19.30999947  15.27999973  50.96000290
H    21.67000008  14.47000027  51.53999710
H    20.58000183  14.63999939  55.70999908
H    12.27000046  15.76000023  55.58000183
H    23.29000092  14.73000050  53.13999939
H    22.86000061  13.17000008  53.95000076
