96

S    12.25999928  16.39999962  44.05000305
C     9.59000015  16.80999947  44.61999893
C    10.82999992  16.31999969  45.04000092
C    11.02000046  15.85999966  46.38000107
C     9.94999981  15.75000000  47.18000031
C     8.71000004  16.38000107  46.84999847
C     7.65999985  16.45000076  47.74000168
C     6.44000006  16.95000076  47.36999893
C     6.24000025  17.38000107  46.03000259
C     7.31999969  17.43000031  45.14999771
C     8.53999996  16.88999939  45.54999924
C    12.43999958  15.69000053  46.63000107
C    13.21000004  15.97000027  45.50000000
C    14.59000015  15.90999985  45.47000122
C     4.82999992  17.82999992  45.59000015
H     4.40539885  17.19309807  44.81400299
H     9.52999973  17.26000023  43.62999725
H    10.05000019  15.39000034  48.20999908
H     7.88999987  16.09000015  48.74000168
H     5.77000046  17.06999969  48.20999908
H     7.26999998  17.76000023  44.12000275
H    15.11999989  15.98999977  44.52000046
H     4.18000031  17.93000031  46.46999741
H     4.88000011  18.85000038  45.19000244
S    15.54999924  14.84000015  49.18000031
C    18.22999954  14.52999973  48.50000000
C    17.01000023  15.00000000  48.13999939
C    16.77000046  15.44000053  46.84000015
C    17.78000069  15.52000046  45.90000153
C    19.04999924  15.11000061  46.19999695
C    20.13000107  15.13000011  45.27000046
C    21.35999870  14.63999939  45.63999939
C    21.57999992  14.13000011  46.98999786
C    20.62000084  14.23999977  47.90000153
C    19.30999947  14.61999989  47.50999832
C    15.31999969  15.64000034  46.63999939
C    14.51000023  15.26999950  47.77000046
C    13.12000084  15.32999992  47.76000214
C    22.90999985  13.60000038  47.42000198
H    23.28453827  14.23671532  48.22151184
H    18.40999985  14.00000000  49.43000031
H    17.56000137  15.80999947  44.87999725
H    19.96999931  15.46000004  44.25000000
H    22.17000008  14.60000038  44.93000031
H    20.94000053  13.97999954  48.89999771
H    12.55000019  15.26000023  48.68000031
H    23.64999962  13.71999931  46.62000275
H    22.85000038  12.53999901  47.70999908
S    15.51000023  12.35000038  52.50999832
C    18.22000122  12.03999996  51.60999680
C    16.87000084  11.89000034  51.44000244
C    16.39000130  11.39000034  50.20000076
C    17.31999969  10.90000057  49.22999954
C    18.72999954  10.95000076  49.47999954
C    19.70000076  10.40999985  48.61999893
C    21.00000000  10.25000000  49.06000137
C    21.44000053  10.92000008  50.20000076
C    20.59999847  11.61999893  50.98999786
C    19.19000053  11.56999969  50.70999908
C    14.93000031  11.54000092  50.02999878
C    14.29999924  12.18000031  51.16000366
C    12.94999981  12.56000042  51.13999939
C    22.86999893  10.57000065  50.63000107
H    23.09863472  10.82006836  51.66600037
H    18.52000046  12.53000069  52.52999878
H    16.93000031  10.22999954  48.47000122
H    19.36000061   9.81999969  47.77000046
H    21.56999969   9.53999996  48.47999954
H    20.95000076  12.10000038  51.90000153
H    12.50000000  12.86999893  52.08000183
H    23.00000000   9.48000050  50.65999985
H    23.65999985  11.03999996  50.01999664
S    11.73999977  11.69999981  47.37999725
C     9.01000023  12.28000069  48.13999939
C    10.39000034  12.30999947  48.41999817
C    10.80000019  12.65999985  49.75000000
C     9.89000034  13.04999924  50.76000214
C     8.52000046  13.12000084  50.41999817
C     7.57000017  13.55000019  51.39999771
C     6.25000000  13.71999931  51.12999725
C     5.89999962  13.63000011  49.81999969
C     6.72999954  13.09000015  48.88000107
C     8.05999947  12.75000000  49.10999680
C    12.25000000  12.44999981  49.93999863
C    12.90999985  11.90000057  48.77999878
C    14.23999977  11.39000034  48.82999802
C     4.51000023  14.17000008  49.26000214
H     4.25989151  13.81690502  48.25956726
H     8.69999981  12.02000046  47.12999725
H    10.13000011  13.30000019  51.79000092
H     7.88999987  13.63000011  52.43000031
H     5.46000004  13.94000053  51.84999847
H     6.35999966  13.09000015  47.85999680
H    14.65000057  11.05000019  47.88000107
H     4.36999989  15.24000072  49.45000076
H     3.73000002  13.67000008  49.85000229
