96

S    12.13000107  16.42000008  44.03999710
C     9.53999996  16.98999977  44.84000397
C    10.77999973  16.48999977  45.19000244
C    11.11999989  15.93999958  46.46999741
C    10.15999985  15.85000038  47.45999908
C     8.82999992  16.23999977  47.16999817
C     7.71000004  16.28999901  48.18000031
C     6.43000031  16.77000046  47.80000305
C     6.19000006  17.18000031  46.50000000
C     7.25000000  17.22999954  45.59999847
C     8.52000046  16.84999847  45.84999847
C    12.56000042  15.70000076  46.60999680
C    13.25000000  16.03999901  45.40999985
C    14.63000107  16.06999969  45.28999710
C     4.80999994  17.57999992  46.06999969
H     4.50532055  17.02141953  45.18497849
H     9.30999947  17.20999908  43.80000305
H    10.47000027  15.52999973  48.44999695
H     7.94000053  16.00000000  49.20000076
H     5.59999990  16.81999969  48.50999832
H     7.03999996  17.61000061  44.59999847
H    15.31000042  16.23999977  44.45999908
H     4.09000015  17.46999931  46.88999939
H     4.92000008  18.64999962  45.86000061
S    15.71000004  14.89999962  48.96999741
C    18.34000015  14.78999996  48.27000046
C    17.05999947  15.13000011  47.90000153
C    16.75000000  15.72000027  46.63999939
C    17.80999947  15.85999966  45.70000076
C    19.11000061  15.42000008  45.97000122
C    20.22999954  15.51000023  45.01999664
C    21.44000053  14.92000008  45.34999847
C    21.64999962  14.32999992  46.56000137
C    20.65999985  14.19999981  47.49000168
C    19.34999847  14.80000019  47.28000259
C    15.32999992  15.84000015  46.46999741
C    14.65999985  15.42000008  47.67000198
C    13.25000000  15.32999992  47.70999908
C    23.12999916  13.94999981  46.95000076
H    23.46609497  14.66509628  47.70085144
H    18.60000038  14.11999893  49.09000015
H    17.60000038  16.26000023  44.71000290
H    20.00999832  16.10000038  44.13000107
H    22.27000046  15.17000008  44.68999863
H    20.72000122  13.75000000  48.47000122
H    12.69999981  15.03000069  48.59000397
H    23.69999886  13.93000031  46.00999832
H    23.05999947  12.92000008  47.31999969
S    11.97000027  16.55999947  50.73999786
C     9.21000004  16.90999985  51.44000244
C    10.47999954  16.54000092  51.73999786
C    10.80000019  16.04999924  53.06000137
C     9.84000015  16.02000046  54.05000305
C     8.46000004  16.42000008  53.77999878
C     7.40000010  16.44000053  54.77000427
C     6.11000013  16.81999969  54.43000031
C     5.82999992  17.25000000  53.09000015
C     6.80000019  17.21999931  52.15000153
C     8.17000008  16.86000061  52.44999695
C    12.20999908  15.75000000  53.18999863
C    12.97000027  15.93999958  52.01000214
C    14.34000015  16.01000023  52.05999756
C     4.44000006  17.79999924  52.72999573
H     4.14190531  17.30086517  51.80798340
H     8.97000027  17.22999954  50.43000031
H    10.13000011  15.54999924  54.99000168
H     7.64999962  16.14999962  55.79000092
H     5.32000017  16.76000023  55.17000198
H     6.63000011  17.50000000  51.11999893
H    14.93000031  16.18000031  51.17000198
H     3.76999998  17.64000130  53.59000397
H     4.34999990  18.86999893  52.52999878
S    15.21000004  15.10000038  55.83000183
C    17.97999954  14.77000046  55.21999741
C    16.69000053  15.15999985  54.84000397
C    16.39999962  15.59000015  53.48999786
C    17.38000107  15.55999947  52.50999832
C    18.65999985  15.15999985  52.87000275
C    19.69000053  14.98999977  51.93999863
C    20.95999908  14.70999908  52.31999969
C    21.25999832  14.46000004  53.64999771
C    20.29999924  14.59000015  54.54000092
C    18.94000053  14.80999947  54.23999786
C    14.98000050  15.77000046  53.31999969
C    14.22000027  15.55999947  54.45000076
C    12.84000015  15.62000084  54.40999985
C    22.75000000  14.19000053  54.15000153
H    22.99179840  14.65978336  55.10338211
H    18.27999878  14.50000000  56.23000336
H    17.15999985  15.62000084  51.45000076
H    19.40999985  15.14999962  50.90000153
H    21.76000214  14.78000069  51.59000015
H    20.48000145  14.56999969  55.61999893
H    12.23000050  15.52000046  55.30000305
H    23.51000023  14.48999977  53.40999985
H    22.92000008  13.10999966  54.22999954
