96

S    12.50000000  15.88000107  44.05000305
C     9.86999989  16.61000061  44.97000122
C    11.07999992  15.98000050  45.17000198
C    11.44999981  15.62999916  46.55000305
C    10.43000031  15.65000057  47.48000336
C     9.10000038  16.13999939  47.22999954
C     8.02999973  15.90000057  48.20999908
C     6.86999989  16.46999931  47.94000244
C     6.51999998  17.10000038  46.63999939
C     7.51999950  17.27000046  45.70000076
C     8.85000038  16.63999939  45.91999817
C    12.92000008  15.53999996  46.63999939
C    13.60000038  15.70000076  45.40999985
C    15.00000000  15.59999943  45.33000183
C     5.09999990  17.38999939  46.19999695
H     4.79872608  16.79445839  45.33821487
H     9.61999989  17.02999878  44.00000000
H    10.51000023  15.10000038  48.41999817
H     8.31999969  15.46000004  49.15999985
H     6.10000038  16.47999954  48.69999695
H     7.18999958  17.67000008  44.73999786
H    15.47000027  15.88999939  44.38999939
H     4.36999989  17.12000084  46.97000122
H     5.05000019  18.46999931  46.00999832
S    16.07999992  14.73000050  49.05000305
C    18.71999931  14.30999947  48.30999756
C    17.39999962  14.70999908  47.95999908
C    17.04000092  15.00000000  46.59000015
C    18.04999924  14.94999981  45.61000061
C    19.40000153  14.60999966  45.98999786
C    20.39999962  14.63000107  45.00000000
C    21.73999977  14.22999954  45.30000305
C    22.04000092  13.81999969  46.65999985
C    21.05999947  13.89000034  47.63999939
C    19.75000000  14.37000084  47.36000061
C    15.67000008  15.26999950  46.43000031
C    15.00000000  15.14999962  47.70999908
C    13.59000015  15.21000004  47.77999878
C    23.42000008  13.45000076  47.11999893
H    23.63403702  14.13491726  47.94047165
H    18.93000031  13.94000053  49.31000137
H    17.73999977  15.05000019  44.56999969
H    20.10999870  14.82999992  43.96999741
H    22.42000198  14.09999943  44.45999908
H    21.14000130  13.67000008  48.69999695
H    13.07000065  15.03000069  48.72000122
H    24.13000107  13.52000046  46.27999878
H    23.47999954  12.44999981  47.57999802
S    12.06999969  16.43000031  50.87999725
C     9.36999989  16.68000031  51.56999969
C    10.67000008  16.27000046  51.90000153
C    11.03999996  15.92000008  53.25000000
C    10.00000000  15.93000031  54.25000000
C     8.71999931  16.31999969  53.99000168
C     7.67000008  16.40999985  54.91000366
C     6.44000006  16.86000061  54.45999908
C     6.19000006  17.47999954  53.16999817
C     7.18999958  17.43999863  52.29999924
C     8.38000011  16.73999977  52.62000275
C    12.48000050  15.84000015  53.47999954
C    13.20000076  16.04999924  52.27000427
C    14.55999947  16.00000000  52.22999954
C     4.86999989  18.09999847  52.74000168
H     4.51987362  17.64983749  51.81109619
H     9.11000061  17.34000015  50.73999786
H    10.31000042  15.55999947  55.22999573
H     7.90000010  16.00000000  55.89000320
H     5.58000040  16.69000053  55.10000229
H     7.07000017  17.85000038  51.30000305
H    15.19000053  16.22999954  51.38000107
H     4.15000010  17.86000061  53.54000092
H     4.86999989  19.19999886  52.68000031
S    15.50000000  15.10000038  55.97999954
C    18.11000061  14.60000038  55.25000000
C    16.87999916  15.13000011  54.91000366
C    16.57999992  15.62999916  53.56999969
C    17.64999962  15.73999977  52.70999908
C    18.95000076  15.26999950  53.01000214
C    19.95000076  15.08999920  52.04000092
C    21.21000099  14.67000008  52.31999969
C    21.50000000  14.30999947  53.68999863
C    20.48000145  14.19000053  54.62999725
C    19.20999908  14.70999908  54.33000183
C    15.15999985  15.72000027  53.44999695
C    14.51000023  15.55999947  54.68000031
C    13.07999992  15.55999947  54.72999954
C    22.84000015  13.81000042  54.12000275
H    23.18229103  14.32343578  55.01851273
H    18.23999977  14.04999924  56.18000031
H    17.34000015  16.07999992  51.72999954
H    19.70000076  15.15999985  50.97999954
H    21.91999817  14.48999977  51.51000214
H    20.69000053  13.64999962  55.54999924
H    12.53000069  15.50000000  55.65999985
H    23.45999908  13.86999989  53.20999908
H    22.70000076  12.76999950  54.41999817
