96

S    12.35000038  16.81999969  44.26000214
C     9.72999954  16.79000092  44.84000397
C    10.93000031  16.35000038  45.25000000
C    11.21999931  15.98000050  46.58000183
C    10.24000072  15.97000027  47.56000137
C     8.88000011  16.23999977  47.12999725
C     7.72000027  16.10999870  47.97999954
C     6.51000023  16.47999954  47.56999969
C     6.25999975  17.07999992  46.24000168
C     7.35000038  17.15999985  45.31000137
C     8.63000011  16.70999908  45.72000122
C    12.69999981  15.95999908  46.79999924
C    13.43999958  16.28999901  45.63999939
C    14.86999989  16.28000069  45.56999969
C     4.98000002  17.64999962  45.84999847
H     4.48118734  17.02106094  45.11262131
H     9.65999985  17.15999985  43.81999969
H    10.57999992  15.80000019  48.57999802
H     7.88000011  15.88999939  49.03999710
H     5.64000034  16.54000092  48.20999908
H     7.35000038  17.48999977  44.27000046
H    15.34999943  16.53000069  44.62999725
H     4.32000017  17.64000130  46.72999954
H     5.12000036  18.67000008  45.47000122
S    15.93999958  15.18000031  49.12000275
C    18.53000069  14.56999969  48.40000153
C    17.31999969  15.14999962  48.08000183
C    17.01000023  15.75000000  46.79000092
C    18.05999947  15.85999966  45.86000061
C    19.32999992  15.26999950  46.18999863
C    20.40999985  15.31000042  45.27999878
C    21.70999908  14.98999977  45.68000031
C    21.93000031  14.29999924  46.97000122
C    20.79000092  14.09999943  47.81999969
C    19.56999969  14.63000107  47.43000031
C    15.60999966  15.97000027  46.65000153
C    14.91000080  15.69000053  47.84000015
C    13.48999977  15.67000008  47.94000244
C    23.31999969  13.94000053  47.50999832
H    23.72032547  14.56193352  48.31064606
H    18.76000023  14.19999981  49.38999939
H    17.78000069  16.20000076  44.86000061
H    20.29999924  15.72999954  44.29000092
H    22.43000031  15.11000061  44.87999725
H    20.79000092  13.71000099  48.83999634
H    13.01000023  15.27999973  48.82999802
H    23.92000008  14.14999962  46.60999680
H    23.39999962  12.86000061  47.70000076
S    12.15999985  16.53000069  50.97000122
C     9.44999981  16.86000061  51.63999939
C    10.75000000  16.57999992  52.01000214
C    11.10000038  16.36999893  53.36999893
C    10.14000034  16.31999969  54.38000107
C     8.80999947  16.57999992  54.05000305
C     7.76000023  16.42000008  54.99000168
C     6.44000006  16.80999947  54.68000031
C     6.17999983  17.28000069  53.34000015
C     7.14999962  17.34000015  52.37999725
C     8.46000004  16.95999908  52.70000076
C    12.56000042  16.31000137  53.54000092
C    13.23999977  16.39999962  52.31999969
C    14.61999989  16.26000023  52.25000000
C     4.75000000  17.64000130  52.93000031
H     4.48650408  17.14767838  51.99389648
H     9.30000019  17.13000107  50.59999847
H    10.47999954  16.10999870  55.38999939
H     8.01999950  16.25000000  56.03000259
H     5.65999985  16.77999878  55.43000031
H     7.00999975  17.73999977  51.38000107
H    15.19000053  16.21999931  51.32999802
H     4.15999985  17.35000038  53.80000305
H     4.73000002  18.73999977  52.88000107
S    15.73999977  15.60999966  56.00999832
C    18.25000000  14.93999958  55.26000214
C    17.06999969  15.52000046  54.92000198
C    16.79000092  15.95000076  53.56999969
C    17.72999954  15.88000107  52.56999969
C    19.00000000  15.38000011  52.91999817
C    20.05000114  15.19000053  52.00000000
C    21.25999832  14.77000046  52.32999802
C    21.50000000  14.34000015  53.63999939
C    20.52000046  14.27000046  54.56999969
C    19.27000046  14.89999962  54.29999924
C    15.34999943  16.21000099  53.40000153
C    14.61999989  16.09000015  54.65000153
C    13.27999973  16.01000023  54.68999863
C    22.89999962  14.06000042  54.15999985
H    23.23192024  14.81235027  54.87547302
H    18.53999901  14.52999973  56.23000336
H    17.46999931  16.13999939  51.53999710
H    19.84000015  15.32999992  50.94999695
H    22.07999992  14.63999939  51.63000107
H    20.65999985  13.82999992  55.54999924
H    12.84000015  15.71000004  55.63999939
H    23.68999863  13.92000008  53.40999985
H    22.93999863  13.09000015  54.66999817
