96

S    12.50000000  16.39999962  44.16999817
C     9.85000038  17.02999878  44.91000366
C    11.13999939  16.63999939  45.30000305
C    11.49000072  16.11999893  46.59999847
C    10.55999947  16.13999939  47.57999802
C     9.26999950  16.60000038  47.28000259
C     8.27999973  16.72999954  48.34999847
C     6.98000002  16.92000008  48.02999878
C     6.60000038  17.27000046  46.66999817
C     7.49000025  17.27000046  45.65999985
C     8.84000015  16.90999985  45.90999985
C    12.88000011  15.77000046  46.69000244
C    13.52000046  15.98999977  45.47000122
C    14.92000008  16.01000023  45.41999817
C     5.21000004  17.69000053  46.33999634
H     4.77217293  17.05444527  45.57027054
H     9.59000015  17.50000000  43.95999908
H    10.75000000  15.81999969  48.60000229
H     8.60999966  16.73999977  49.38999939
H     6.32000017  17.11000061  48.87000275
H     7.26000023  17.60000038  44.65000153
H    15.44000053  16.18999863  44.48999786
H     4.61000013  17.53999901  47.23999786
H     5.13999987  18.72999954  46.00999832
S    16.02000046  15.40999985  49.20000076
C    18.79999924  15.21000004  48.48999786
C    17.51000023  15.46000004  48.18999863
C    17.07999992  15.62000084  46.77000046
C    18.04000092  15.59000015  45.79999924
C    19.40000153  15.38000011  46.05999756
C    20.40999985  15.19000053  45.06000137
C    21.71999931  15.03000069  45.28999710
C    22.11000061  14.92000008  46.60999680
C    21.11000061  14.88000011  47.63999939
C    19.77000046  15.15999985  47.47000122
C    15.67999935  15.81999969  46.63999939
C    14.96000099  15.67999935  47.81999969
C    13.55999947  15.65000057  47.93000031
C    23.45000076  14.45000076  46.97999954
H    23.67991257  14.63680363  48.02897263
H    19.22000122  15.11999989  49.48999786
H    17.80999947  15.59000015  44.72999954
H    19.97999954  15.39999962  44.08000183
H    22.43999863  14.96000099  44.47999954
H    21.42000008  14.55999947  48.62999725
H    13.01000023  15.81999969  48.85000229
H    24.14999962  15.01000023  46.35000229
H    23.52999878  13.36999989  46.77000046
S    11.95000076  16.98999977  51.10000229
C     9.34000015  17.61999893  51.86999893
C    10.54999924  17.01000023  52.15999985
C    10.77999973  16.36999893  53.40999985
C     9.70000076  16.13999939  54.22999954
C     8.43999958  16.69000053  53.93000031
C     7.23000002  16.65999985  54.80999756
C     6.02999973  17.22999954  54.48999786
C     5.82999992  17.86000061  53.25000000
C     6.91999960  17.90999985  52.32999802
C     8.25000000  17.50000000  52.76000214
C    12.20999908  16.39999962  53.63999939
C    12.94999981  16.61000061  52.50000000
C    14.23999977  16.39000130  52.37999725
C     4.48999977  18.25000000  52.72999573
H     4.13316107  17.63427734  51.90437317
H     9.23999977  18.17000008  50.93999863
H     9.96999931  15.62999916  55.14999771
H     7.32999992  16.22999954  55.80999756
H     5.14999962  17.00000000  55.06999969
H     6.76999998  18.27000046  51.31000137
H    14.78999996  16.22999954  51.45000076
H     3.77999997  17.88999939  53.47000122
H     4.42000008  19.32999992  52.55000305
S    15.36000061  15.18000031  56.00999832
C    18.02000046  14.78999996  55.34000015
C    16.77000046  15.29000092  55.00999832
C    16.40999985  15.80999947  53.73000336
C    17.35999870  15.88000107  52.74000168
C    18.64999962  15.42000008  53.04999924
C    19.70000076  15.53999996  52.15999985
C    20.98999977  15.11000061  52.36999893
C    21.27000046  14.42999935  53.57999802
C    20.29999924  14.27000046  54.52999878
C    18.96000099  14.82999992  54.31999969
C    15.01999950  16.13000107  53.52000427
C    14.27000046  15.84000015  54.69999695
C    12.86999893  16.01000023  54.71000290
C    22.65000153  14.02999973  53.82999802
H    22.99569511  14.68537998  54.62941742
H    18.05999947  14.29999924  56.31000137
H    17.12000084  16.18000031  51.72999954
H    19.52999878  16.03999901  51.20999908
H    21.76000214  15.36000061  51.65000153
H    20.55000114  13.76000023  55.45999908
H    12.25000000  15.65999985  55.52999878
H    23.19999886  14.23999977  52.90000153
H    22.56999969  12.94000053  53.93000031
