96

S    12.39999962  16.32999992  44.31999969
C     9.78999996  16.65999985  44.95999908
C    11.02000046  16.28000069  45.31000137
C    11.33999920  15.77999973  46.59999847
C    10.38000011  15.78999996  47.63999939
C     9.10000038  16.35000038  47.30999756
C     8.00000000  16.36000061  48.18999863
C     6.71000004  16.77000046  47.85999680
C     6.40999985  17.23999977  46.56999969
C     7.36000013  17.17000008  45.63999939
C     8.73999977  16.77000046  45.96000290
C    12.76000023  15.46000004  46.70000076
C    13.50000000  15.80000019  45.59000015
C    14.85999966  15.65999985  45.44000244
C     4.97000027  17.53999901  46.25999832
H     4.54274082  16.88437653  45.50124359
H     9.63000011  16.95999908  43.92000198
H    10.57000065  15.42000008  48.64999771
H     8.25000000  16.01000023  49.19000244
H     5.88999987  16.67000008  48.55999756
H     7.13000011  17.38999939  44.59999847
H    15.34000015  16.01000023  44.54000092
H     4.28000021  17.47999954  47.11000061
H     4.92999983  18.55999947  45.86000061
S    16.01000023  14.85999966  49.13999939
C    18.64999962  14.60999966  48.36000061
C    17.38999939  14.96999931  48.06000137
C    16.97999954  15.14000034  46.70000076
C    17.97999954  15.39000034  45.77000046
C    19.31999969  15.01999950  46.05999756
C    20.36000061  15.14999962  45.12000275
C    21.63000107  14.65999985  45.47999954
C    21.90999985  14.37999916  46.77000046
C    20.95000076  14.47000027  47.75000000
C    19.63000107  14.65999985  47.39999771
C    15.54999924  15.24000072  46.59000015
C    14.88999939  15.10000038  47.78999710
C    13.50000000  15.14000034  47.87000275
C    23.26999855  13.96999931  47.18000031
H    23.52353477  14.30100536  48.18710327
H    18.88000107  14.25000000  49.36000061
H    17.72999954  15.85999966  44.82999802
H    20.20999908  15.67999935  44.18000031
H    22.29999924  14.55000019  44.62999725
H    21.21000099  14.25000000  48.77999878
H    13.05999947  15.10000038  48.86000061
H    24.06999969  14.22999954  46.47999573
H    23.19999886  12.89000034  47.00000000
S    15.77000046  12.20000076  52.51999664
C    18.45000076  11.50000000  51.83000183
C    17.12000084  11.56000042  51.47999573
C    16.61999893  11.28999901  50.20000076
C    17.53999901  11.05999947  49.20000076
C    18.95000076  10.86999989  49.52999878
C    19.88999939  10.47000027  48.59000397
C    21.21000099  10.27999973  48.97999573
C    21.65999985  10.50000000  50.26000214
C    20.76000023  11.00000000  51.17000198
C    19.40999985  11.16000080  50.86000061
C    15.19999981  11.61999893  49.99000168
C    14.60999966  12.10000038  51.18000031
C    13.30999947  12.43000031  51.24000168
C    23.06999969  10.11000061  50.61999893
H    23.35889053  10.35858059  51.64119720
H    18.75000000  11.84000015  52.81999969
H    17.13000107  10.67999935  48.27000046
H    19.57999992  10.31999969  47.56000137
H    21.91999817  10.06000042  48.18999863
H    21.05999947  11.16000080  52.21000290
H    12.98999977  12.79999924  52.21000290
H    23.19000053   9.04999924  50.35999680
H    23.77000046  10.57999992  49.92000198
S    11.90000057  11.73999977  47.56999969
C     9.25000000  12.23000050  48.33000183
C    10.62999916  12.20999908  48.67000198
C    11.06999969  12.55000019  50.00000000
C    10.15999985  12.79999924  51.00999832
C     8.76999950  12.92000008  50.70999908
C     7.85000038  13.43999958  51.60999680
C     6.48999977  13.63000011  51.31999969
C     6.06999969  13.30000019  50.01999664
C     6.96000004  12.76000023  49.06000137
C     8.34000015  12.57999992  49.33000183
C    12.48999977  12.36999989  50.15999603
C    13.07000065  11.94000053  48.88000107
C    14.40000057  11.56000042  48.82999802
C     4.80999994  13.86000061  49.45999908
H     4.52751493  13.38919163  48.51838303
H     8.94999981  12.03999996  47.29999924
H    10.46000004  12.79000092  52.04999924
H     8.19000053  13.88000011  52.55000305
H     5.80999947  14.18000031  51.95999908
H     6.57999992  12.86000061  48.04999924
H    14.68999958  11.06999969  47.90000153
H     4.96000004  14.93999958  49.31999969
H     4.01999998  13.78000069  50.21999741
