96

S    12.30999947  16.31000137  44.26000214
C     9.63000011  16.77000046  44.87999725
C    10.92000008  16.45000076  45.31000137
C    11.21000099  16.04999924  46.65000153
C    10.15999985  16.03000069  47.63000107
C     8.88000011  16.29999924  47.22999954
C     7.81000042  16.34000015  48.13999939
C     6.51999998  16.61999893  47.83000183
C     6.25000000  17.05999947  46.53999710
C     7.25000000  17.05999947  45.59000015
C     8.60000038  16.61999893  45.84000015
C    12.60000038  15.67000008  46.81999969
C    13.31999969  15.75000000  45.59999847
C    14.70000076  15.72000027  45.54999924
C     4.86000013  17.53999901  46.24000168
H     4.35963774  16.91097260  45.50375366
H     9.44000053  17.36999893  43.99000168
H    10.21999931  15.75000000  48.68000031
H     7.95000029  15.98000050  49.15000153
H     5.78000021  16.53000069  48.61999893
H     7.13000011  17.38999939  44.55999756
H    15.31999969  15.95999908  44.68999863
H     4.30000019  17.52000046  47.18999863
H     4.88999987  18.53000069  45.77999878
S    15.84000015  14.93999958  49.27999878
C    18.53000069  14.40000057  48.43000031
C    17.26000023  14.85000038  48.13000107
C    16.87999916  15.34000015  46.86999893
C    17.82999992  15.19999981  45.86000061
C    19.19000053  14.78000069  46.13999939
C    20.15999985  14.65000057  45.10000229
C    21.50000000  14.40999985  45.37000275
C    21.84999847  14.02999973  46.69000244
C    20.88000107  13.96000004  47.63999939
C    19.51000023  14.35999966  47.43000031
C    15.44000053  15.54999924  46.77000046
C    14.78000069  15.38000011  48.00000000
C    13.38000107  15.34000015  48.00000000
C    23.19999886  13.64999962  47.14000320
H    23.46692276  14.31369972  47.96240997
H    18.72999954  14.11000061  49.45000076
H    17.52000046  15.39000034  44.82999802
H    19.76000023  14.93999958  44.13999939
H    22.25000000  14.40000057  44.58000183
H    21.09999847  13.60999966  48.63999939
H    12.88000011  15.36999893  48.95999908
H    23.85000038  13.73000050  46.25999832
H    23.26000023  12.61999989  47.51999664
S    11.52999973  16.73999977  50.84000015
C     8.82999992  16.90999985  51.58000183
C    10.13000011  16.56999969  51.95999908
C    10.55999947  16.18000031  53.25000000
C     9.59999943  16.06999969  54.20000076
C     8.21000004  16.29999924  53.88000107
C     7.17999983  16.20000076  54.84000397
C     5.84999990  16.53000069  54.54999924
C     5.55000019  17.05000114  53.29000092
C     6.50000000  17.19000053  52.29999924
C     7.86999989  16.72999954  52.58999634
C    11.95000076  15.92000008  53.29999924
C    12.69999981  16.39000130  52.19999695
C    14.09000015  16.55999947  52.29999924
C     4.11999989  17.35000038  52.95000076
H     3.78481531  16.86118889  52.03522491
H     8.67999935  17.50000000  50.68000031
H     9.77999973  15.71000004  55.20999908
H     7.51999950  15.93000031  55.83000183
H     5.09999990  16.36999893  55.31999969
H     6.15000010  17.69000053  51.39999771
H    14.67000008  16.93000031  51.45999908
H     3.51000023  17.11000061  53.82999802
H     4.11999989  18.44000053  52.77999878
S    15.06999969  15.26000023  55.87999725
C    17.70000076  14.89999962  55.11000061
C    16.45000076  15.40999985  54.85000229
C    16.20000076  15.93999958  53.54000092
C    17.18000031  15.84000015  52.50999832
C    18.48999977  15.47999954  52.80000305
C    19.63000107  15.67000008  51.95000076
C    20.86999893  15.19000053  52.34000397
C    20.98999977  14.52000046  53.54999924
C    19.97999954  14.40999985  54.43999863
C    18.68999863  14.86999989  54.12000275
C    14.78000069  16.18999863  53.46000290
C    14.01999950  15.75000000  54.54000092
C    12.61000061  15.59000015  54.47000122
C    22.37999916  14.02999973  53.95000076
H    22.73766327  14.66117191  54.76351166
H    17.82999992  14.32999992  56.03000259
H    16.84000015  16.14999962  51.52000046
H    19.56999969  16.18999863  50.98999786
H    21.77999878  15.52000046  51.84999847
H    20.19000053  13.94999981  55.40999985
H    12.07999992  15.31000042  55.38000107
H    22.98999977  14.14999962  53.04999924
H    22.37999916  12.97999954  54.23999786
