96

S    12.31999969  16.42000008  44.06000137
C     9.67000008  16.79999924  44.97000122
C    10.95999908  16.38000107  45.21999741
C    11.35000038  15.98999977  46.56000137
C    10.36999893  15.95999908  47.50000000
C     9.01000023  16.36000061  47.27000427
C     7.95000029  16.04999924  48.20999908
C     6.60000038  16.47999954  47.95999908
C     6.30000019  16.90000153  46.72000122
C     7.31999969  17.15999985  45.79000092
C     8.67999935  16.84000015  45.98999786
C    12.77999973  15.93999958  46.65999985
C    13.45999908  16.09000015  45.40000153
C    14.84000015  16.01000023  45.24000168
C     4.86999989  17.11000061  46.37000275
H     4.62020588  16.79597282  45.35654831
H     9.28999996  17.10000038  44.00000000
H    10.64000034  15.46000004  48.43000031
H     8.38999939  15.57000065  49.08000183
H     5.77000046  16.45000076  48.67000198
H     7.07999992  17.56000137  44.79999924
H    15.36000061  16.14999962  44.29999924
H     4.30000019  16.44000053  47.02999878
H     4.59999990  18.15999985  46.56000137
S    15.85000038  14.84000015  48.90999603
C    18.53999901  14.55000019  48.18999863
C    17.27000046  14.93999958  47.84000015
C    16.94000053  15.38000011  46.53999710
C    17.95999908  15.39000034  45.59999847
C    19.32999992  15.14000034  45.90000153
C    20.39999962  15.21000004  44.94999695
C    21.68999863  14.88000011  45.26000214
C    22.00000000  14.47999954  46.62000275
C    20.97999954  14.39000034  47.52999878
C    19.63999939  14.73999977  47.22999954
C    15.53999996  15.62000084  46.40999603
C    14.84000015  15.40999985  47.63000107
C    13.53000069  15.59000015  47.76000214
C    23.31000137  13.93000031  46.91999817
H    23.66463852  14.20119476  47.91437531
H    18.71999931  14.00000000  49.10999680
H    17.87999916  15.67000008  44.54999924
H    20.03000069  15.39000034  43.94000244
H    22.44999886  14.88999939  44.50000000
H    21.12999916  13.94999981  48.52000427
H    13.07000065  15.31000042  48.69999695
H    23.90999985  14.11999893  46.03000259
H    23.12000084  12.84000015  46.90000153
S    12.07999992  16.62999916  51.10000229
C     9.42000008  16.90000153  51.84000015
C    10.65000057  16.34000015  52.06999969
C    10.98000050  15.75000000  53.33000183
C     9.96999931  15.65000057  54.29000092
C     8.67999935  16.18000031  54.06000137
C     7.73000002  16.22999954  55.06999969
C     6.40999985  16.72000122  54.86000061
C     6.09000015  17.15999985  53.56999969
C     7.04999971  17.22999954  52.62000275
C     8.36000061  16.73999977  52.81999969
C    12.43999958  15.72999954  53.53000259
C    13.15000057  16.10999870  52.39999771
C    14.50000000  15.90000057  52.29999924
C     4.67999983  17.60000038  53.20999908
H     4.25764608  17.04566193  52.37189102
H     9.11000061  17.42000008  50.93999863
H    10.22999954  15.22999954  55.26000214
H     8.14999962  15.90000057  56.00999832
H     5.72000027  16.73999977  55.68999863
H     6.90999985  17.64999962  51.62000275
H    14.94999981  16.02000046  51.31999969
H     4.09000015  17.43999863  54.12000275
H     4.65999985  18.68000031  52.98999786
S    15.47000027  14.52000046  55.89000320
C    18.15999985  14.27000046  55.20000076
C    16.95000076  14.75999928  54.94999695
C    16.64999962  15.27999973  53.59000397
C    17.61000061  15.27999973  52.58999634
C    18.88000107  14.82999992  52.91999817
C    19.90999985  14.85999966  51.91999817
C    21.17000198  14.42999935  52.22000122
C    21.52000046  14.02999973  53.54000092
C    20.52000046  13.94999981  54.47000122
C    19.19999886  14.47999954  54.25000000
C    15.22999954  15.57999992  53.44999695
C    14.45000076  15.26000023  54.65000153
C    13.07999992  15.32999992  54.65000153
C    22.92000008  13.73000050  54.06000137
H    23.17127991  14.24692154  54.98614883
H    18.32999992  13.67000008  56.07999802
H    17.39999962  15.65999985  51.59999847
H    19.70999908  15.27999973  50.93000031
H    22.07999992  14.53999996  51.63999939
H    20.65000153  13.35000038  55.37000275
H    12.63000011  14.82999992  55.50000000
H    23.64999962  13.83999920  53.23999786
H    22.95000076  12.67000008  54.31000137
