96

S    12.48000050  16.54000092  44.34999847
C     9.75000000  16.62999916  44.92000198
C    11.00999928  16.27000046  45.27999878
C    11.31000042  15.90999985  46.63999939
C    10.26999950  15.80999947  47.54000092
C     8.93999958  16.20000076  47.21000290
C     7.88999987  16.26000023  48.11999893
C     6.60000038  16.57999992  47.76000214
C     6.39999962  17.15999985  46.50000000
C     7.40999985  17.11000061  45.58000183
C     8.71000004  16.57999992  45.84999847
C    12.77999973  15.80000019  46.81000137
C    13.50999928  16.03000069  45.68000031
C    14.85000038  15.97000027  45.56000137
C     5.03999996  17.75000000  46.13999939
H     4.62188244  17.21140671  45.28958893
H     9.55000019  17.06999969  43.94000244
H    10.60999966  15.60999966  48.54999924
H     8.19999981  15.92000008  49.10999680
H     5.78000021  16.52000046  48.46000290
H     7.34000015  17.61000061  44.61999893
H    15.34000015  16.06999969  44.59000015
H     4.39000034  17.50000000  46.97999954
H     5.00999975  18.85000038  46.16000366
S    15.93000031  15.14999962  49.22000122
C    18.53000069  14.67000008  48.61000061
C    17.28999901  15.14999962  48.20000076
C    17.04000092  15.48999977  46.88000107
C    18.02000046  15.40999985  45.91999817
C    19.29000092  14.94999981  46.25999832
C    20.32999992  15.06999969  45.27999878
C    21.61000061  14.77000046  45.54999924
C    21.90000153  14.34000015  46.90999985
C    20.94000053  14.22999954  47.87000275
C    19.55000114  14.60999966  47.62000275
C    15.55999947  15.67999935  46.70999908
C    14.82999992  15.55999947  47.91999817
C    13.43999958  15.55999947  47.98999786
C    23.32999992  13.99000072  47.22999954
H    23.58966064  14.49489880  48.16045761
H    18.70000076  14.37999916  49.64000320
H    17.73999977  15.62999916  44.88999939
H    19.96000099  15.53999996  44.38000107
H    22.43000031  15.00000000  44.86999893
H    21.18999863  13.94999981  48.88999939
H    12.84000015  15.39000034  48.87000275
H    23.95999908  14.30999947  46.38999939
H    23.52999878  12.92000008  47.28000259
S    16.36999893  12.36999989  52.11999893
C    18.90999985  12.02000046  51.49000168
C    17.67000008  11.89000034  51.11000061
C    17.26000023  11.32999992  49.89999771
C    18.19000053  10.82999992  49.05000305
C    19.52999878  10.98999977  49.31000137
C    20.52000046  10.39999962  48.50999832
C    21.86000061  10.52999973  48.75000000
C    22.26000023  11.32999992  49.93000031
C    21.28000069  11.75000000  50.75000000
C    19.93000031  11.63000011  50.52999878
C    15.81999969  11.46000004  49.68999863
C    15.21000004  12.17000008  50.80999756
C    13.85000038  12.51999950  50.81999969
C    23.64000130  11.36999989  50.59999847
H    23.77967072  10.48786640  51.22484589
H    19.15999985  12.64999962  52.34000397
H    17.92000008  10.24000072  48.18000031
H    20.15000153   9.86999989  47.63999939
H    22.63000107  10.06999969  48.15000153
H    21.47999954  12.01000023  51.79000092
H    13.38999939  12.98999977  51.68000031
H    24.37000084  11.35000038  49.79000092
H    23.74000168  12.32999992  51.12999725
S    12.48000050  11.44000053  47.22000122
C     9.90999985  12.15999985  47.83000183
C    11.18999958  12.13999939  48.22999954
C    11.64999962  12.58999920  49.47999954
C    10.67999935  12.90999985  50.41999817
C     9.30000019  12.96000004  50.07999802
C     8.23000050  13.32999992  50.93999863
C     6.93000031  13.45999908  50.56999969
C     6.54999971  13.02000046  49.25000000
C     7.50000000  12.63000011  48.31999969
C     8.93999958  12.61999989  48.70999908
C    13.12999916  12.31999969  49.61000061
C    13.68999958  11.64999962  48.52000427
C    15.05000019  11.18999958  48.53000259
C     5.09000015  13.03999996  49.02999878
H     4.84683514  13.41825676  48.03707886
H     9.65999985  11.73999977  46.86000061
H    10.88999939  13.05999947  51.47999573
H     8.53999996  13.52000046  51.95999908
H     6.15000010  13.85000038  51.22000122
H     7.13999987  12.43999958  47.30999756
H    15.55999947  10.60999966  47.76000214
H     4.55000019  13.48999977  49.86999893
H     4.72000027  12.01000023  49.12000275
