96

S    12.10999966  16.61999893  44.43999863
C     9.44000053  16.97000122  45.00999832
C    10.64000034  16.40999985  45.38000107
C    10.85000038  15.92000008  46.70000076
C     9.80000019  15.88000107  47.61000061
C     8.56000042  16.42000008  47.21000290
C     7.40000010  16.40999985  48.01000214
C     6.15000010  16.84999847  47.54000092
C     5.97000027  17.38000107  46.19999695
C     7.09000015  17.50000000  45.43000031
C     8.36000061  17.02000046  45.89000320
C    12.30000019  15.80000019  46.95999908
C    13.10999966  16.13999939  45.79999924
C    14.50000000  16.18000031  45.77000046
C     4.61000013  17.80999947  45.63999939
H     4.23367739  17.15867233  44.85116959
H     9.34000015  17.51000023  44.06999969
H     9.92999935  15.65000057  48.66000366
H     7.55999994  16.02000046  49.01000214
H     5.29999971  16.82999992  48.22000122
H     6.94999981  17.95999908  44.45000076
H    15.06000042  16.18000031  44.85000229
H     3.86999989  17.94999886  46.44000244
H     4.76999998  18.79999924  45.20999908
S    15.44000053  14.93999958  49.41999817
C    18.02999878  14.34999943  48.56999969
C    16.81999969  14.98000050  48.36999893
C    16.52000046  15.62999916  47.12999725
C    17.45000076  15.62000084  46.13999939
C    18.76000023  15.11000061  46.38000107
C    19.73999977  15.03000069  45.35999680
C    21.09000015  14.81999969  45.68999863
C    21.37000084  14.19999981  46.95000076
C    20.36000061  13.94999981  47.87000275
C    19.06999969  14.45000076  47.61000061
C    15.11000061  15.92000008  47.01000214
C    14.34999943  15.51000023  48.09999847
C    12.97000027  15.38000011  48.11000061
C    22.72999954  13.68000031  47.28000259
H    23.09011078  14.33269787  48.07524109
H    18.15000153  13.78999901  49.48999786
H    17.23999977  16.02000046  45.14999771
H    19.37999916  15.55999947  44.47999954
H    21.81999969  15.15999985  44.95999908
H    20.61000061  13.52000046  48.83999634
H    12.39999962  15.00000000  48.94000244
H    23.38000107  13.67000008  46.39999771
H    22.56999969  12.63000011  47.55000305
S    12.00000000  16.72999954  51.04000092
C     9.32999992  17.07999992  51.77000046
C    10.57000065  16.60000038  52.09000015
C    10.88000107  16.23999977  53.39000320
C     9.85000038  16.14999962  54.26000214
C     8.51000023  16.59000015  53.99000168
C     7.49000025  16.62999916  54.89999771
C     6.28000021  17.20000076  54.62999725
C     6.03999996  17.65999985  53.36000061
C     7.07000017  17.81999969  52.50999832
C     8.30000019  17.15999985  52.75000000
C    12.30999947  16.03999901  53.61000061
C    13.00000000  16.47999954  52.48000336
C    14.44000053  16.46999931  52.34000397
C     4.67000008  18.12000084  52.90999985
H     4.27534485  17.36656761  52.22832108
H     9.22000027  17.67000008  50.86000061
H    10.07999992  15.78999996  55.26000214
H     7.65999985  16.28999901  55.91999817
H     5.49000025  17.26000023  55.37000275
H     6.88000011  18.27999878  51.53999710
H    14.86999989  16.65999985  51.36000061
H     3.98999977  18.17000008  53.76999664
H     4.55000019  19.09000015  52.42000198
S    15.53999996  15.19000053  56.03000259
C    18.05999947  14.75000000  55.20000076
C    16.90999985  15.34000015  54.99000168
C    16.56999969  15.77999973  53.63999939
C    17.56999969  15.65000057  52.63000107
C    18.85000038  15.11000061  52.95999908
C    19.79999924  14.85999966  51.97000122
C    21.04999924  14.42999935  52.30999756
C    21.42999840  14.02999973  53.60000229
C    20.43000031  14.19999981  54.58000183
C    19.12999916  14.70000076  54.29000092
C    15.11999989  16.02000046  53.46000290
C    14.42999935  15.71000004  54.66999817
C    13.02999973  15.65000057  54.75999832
C    22.84000015  13.69999981  53.99000168
H    23.21992493  14.34242058  54.78438950
H    18.17000008  14.28999996  56.18000031
H    17.34000015  15.81999969  51.58000183
H    19.57999992  15.01000023  50.90999985
H    21.80000114  14.34999943  51.52999878
H    20.62000084  13.86999989  55.59999847
H    12.58999920  15.31000042  55.68999863
H    23.45999908  13.85000038  53.09999847
H    22.88000107  12.63000011  54.22000122
