96

S    12.32999992  16.46000099  44.34999847
C     9.72000027  17.06999969  45.08999634
C    10.98999977  16.64999962  45.41999817
C    11.25000000  16.43000031  46.77999878
C    10.24000072  16.42000008  47.70000076
C     8.89999962  16.79999924  47.34000397
C     7.76999998  16.76000023  48.13999939
C     6.51999998  16.95000076  47.60000229
C     6.26999950  17.20000076  46.25000000
C     7.34000015  17.31999969  45.45000076
C     8.64999962  17.19000053  45.96000290
C    12.65999985  16.18999863  46.93999863
C    13.40999985  16.28999901  45.70999908
C    14.77000046  16.22999954  45.63999939
C     4.88000011  17.56999969  45.86000061
H     4.48447847  16.96965599  45.04070282
H     9.53999996  17.52000046  44.12000275
H    10.43000031  16.07999992  48.70999908
H     7.85000038  16.43000031  49.16999817
H     5.77000046  16.88999939  48.37999725
H     7.25000000  17.56000137  44.38999939
H    15.29000092  16.36000061  44.69999695
H     4.30000019  17.42000008  46.77000046
H     4.84000015  18.64999962  45.70000076
S    16.01000023  15.48999977  49.38999939
C    18.45999908  14.65000057  48.50999832
C    17.25000000  15.21000004  48.16999817
C    16.84999847  15.46000004  46.83000183
C    17.82999992  15.50000000  45.80999756
C    19.12999916  15.07999992  46.14999771
C    20.23999977  15.21999931  45.25000000
C    21.50000000  14.92000008  45.68000031
C    21.75000000  14.51000023  47.04000092
C    20.72000122  14.34000015  47.87000275
C    19.40999985  14.63999939  47.48000336
C    15.44999981  15.80999947  46.75000000
C    14.78000069  15.81999969  48.01000214
C    13.43999958  16.02000046  48.11000061
C    23.15000153  14.27000046  47.43999863
H    23.41384888  14.79769802  48.35652542
H    18.73999977  14.28999996  49.48999786
H    17.65999985  15.85000038  44.79000092
H    20.07999802  15.73999977  44.31000137
H    22.32000160  15.05000019  44.98000336
H    20.95000076  14.01999950  48.88999939
H    12.94000053  15.95000076  49.06999969
H    23.85000038  14.59000015  46.66999817
H    23.36999893  13.25000000  47.78999710
S    11.73999977  17.01000023  50.84000015
C     9.10000038  17.31999969  51.63000107
C    10.34999943  16.90000153  51.95000076
C    10.71000004  16.54999924  53.25000000
C     9.68000031  16.36000061  54.20999908
C     8.38999939  16.77999878  53.95999908
C     7.32999992  16.73999977  54.94999695
C     6.11000013  17.17000008  54.59000015
C     5.77000046  17.61000061  53.27999878
C     6.80999994  17.80999947  52.41000366
C     8.14000034  17.38000107  52.63000107
C    12.18000031  16.52000046  53.33000183
C    12.84000015  16.82999992  52.18999863
C    14.21000004  16.69999886  52.09000015
C     4.32999992  17.71999931  52.93000031
H     4.08825159  17.20806313  51.99856186
H     8.80999947  17.68000031  50.63999939
H     9.94999981  16.01000023  55.20000076
H     7.55999994  16.34000015  55.93999863
H     5.26000023  17.05000114  55.25000000
H     6.67000008  18.22999954  51.40999603
H    14.73999977  16.93000031  51.18000031
H     3.71000004  17.38000107  53.76999664
H     4.30000019  18.81000137  52.84000015
S    15.19999981  15.73999977  55.84000015
C    17.78000069  15.06999969  55.12000275
C    16.61000061  15.72000027  54.79999924
C    16.36000061  16.22999954  53.43999863
C    17.36999893  16.27000046  52.52999878
C    18.63999939  15.77999973  52.93000031
C    19.70000076  15.67000008  51.98999786
C    20.85000038  15.13000011  52.29999924
C    21.18999863  14.72000027  53.61000061
C    20.20999908  14.60000038  54.52000046
C    18.88000107  15.07999992  54.19000244
C    14.93999958  16.31000137  53.22999954
C    14.22000027  16.10999870  54.40999985
C    12.86000061  16.20000076  54.45999908
C    22.55000114  14.25000000  54.03999710
H    22.86906433  14.83140659  54.90502167
H    18.01000023  14.55000019  56.04999924
H    17.05000114  16.59000015  51.53999710
H    19.55000114  15.95000076  50.94999695
H    21.68999863  15.08999920  51.60999680
H    20.34000015  14.28999996  55.56000137
H    12.28999996  15.90999985  55.34000015
H    23.25000000  14.28999996  53.20000076
H    22.49000168  13.22999954  54.41999817
