96

S    11.94000053  16.15999985  44.01000214
C     9.42000008  16.69000053  44.69999695
C    10.59000015  16.17000008  45.06999969
C    10.92000008  15.72000027  46.38999939
C     9.84000015  15.65999985  47.30999756
C     8.55000019  16.21000099  46.97999954
C     7.46999979  16.35000038  47.91999817
C     6.30000019  16.92000008  47.63000107
C     6.03999996  17.30999947  46.26999664
C     7.02000046  17.10000038  45.30000305
C     8.34999943  16.63999939  45.63000107
C    12.43000031  15.62000084  46.56999969
C    13.10999966  15.72999954  45.33000183
C    14.50000000  15.72000027  45.28999710
C     4.65999985  17.71000099  45.84000015
H     4.37030554  17.18713760  44.92852402
H     9.35999966  17.20000076  43.74000168
H    10.08999920  15.48999977  48.34999847
H     7.65999985  15.95000076  48.90999603
H     5.51000023  17.00000000  48.36000061
H     6.80999994  17.21999931  44.23999786
H    14.92000008  15.72999954  44.29000092
H     4.07000017  17.25000000  46.65000153
H     4.48000002  18.78999901  45.77000046
S    15.62999916  15.05000019  49.09999847
C    18.20999908  14.60000038  48.40000153
C    16.98999977  15.10000038  47.98999786
C    16.61999893  15.44000053  46.68000031
C    17.59000015  15.34999943  45.70999908
C    18.92000008  14.92000008  46.09000397
C    19.95000076  15.14999962  45.19000244
C    21.27000046  14.85999966  45.61999893
C    21.53000069  14.26000023  46.86000061
C    20.52000046  14.14000034  47.80000305
C    19.22999954  14.47000027  47.43999863
C    15.21999931  15.57999992  46.46999741
C    14.51000023  15.44999981  47.76000214
C    13.15999985  15.44000053  47.78999710
C    22.96999931  13.94999981  47.22999954
H    23.32401848  14.48464203  48.11143494
H    18.43000031  14.34999943  49.43999863
H    17.36999893  15.57999992  44.66999817
H    19.73999977  15.52999973  44.20000076
H    22.10000038  15.25000000  45.04000092
H    20.69999886  13.90999985  48.85000229
H    12.55000019  15.36000061  48.68000031
H    23.61000061  14.11999893  46.36000061
H    23.03999901  12.86999893  47.38999939
S    16.31000137  12.28999996  52.18999863
C    18.93000031  11.63000011  51.46999741
C    17.60000038  11.64999962  51.14999771
C    17.21999931  11.39000034  49.80999756
C    18.06999969  10.93999958  48.92000198
C    19.45999908  11.11999989  49.15999985
C    20.38999939  10.65999985  48.22999954
C    21.71999931  10.59999943  48.60000229
C    22.17000008  11.00999928  49.85000229
C    21.28999901  11.51000023  50.80999756
C    19.92000008  11.52999973  50.50000000
C    15.80000019  11.82999992  49.61000061
C    15.17000008  12.27000046  50.84000015
C    13.81999969  12.48999977  50.86000061
C    23.64999962  10.72000027  50.19000244
H    23.96068954  10.98832321  51.19974136
H    19.29999924  11.72999954  52.49000168
H    17.80999947  10.47999954  47.97000122
H    20.00000000  10.29999924  47.28000259
H    22.39999962  10.01999950  47.98999786
H    21.61000061  11.54000092  51.84999847
H    13.45000076  12.64000034  51.86999893
H    23.92999840   9.65999985  50.11000061
H    24.34999847  11.25000000  49.52999878
S    12.48999977  11.61999893  47.25999832
C     9.72999954  12.06999969  48.01000214
C    11.06999969  12.27000046  48.22000122
C    11.56999969  12.71000004  49.54000092
C    10.67000008  13.12999916  50.54000092
C     9.26999950  13.14000034  50.27999878
C     8.32999992  13.61999989  51.27999878
C     6.98999977  13.55000019  50.97000122
C     6.48999977  13.15000057  49.68999863
C     7.36999989  12.69000053  48.72000122
C     8.78999996  12.60000038  49.00000000
C    13.02000046  12.48999977  49.72000122
C    13.67000008  12.09000015  48.54000092
C    15.03000069  11.61999893  48.47000122
C     5.03000021  13.31999969  49.40999985
H     4.80915499  12.87830925  48.43828201
H     9.46000004  11.63000011  47.04999924
H    10.93000031  13.23999977  51.59000015
H     8.60999966  13.78000069  52.31999969
H     6.28000021  13.78000069  51.76000214
H     7.03000021  12.38000011  47.74000168
H    15.52999973  11.14999962  47.63999939
H     4.86000013  14.40000057  49.34999847
H     4.41000032  12.94000053  50.24000168
