96

S    12.02999973  16.75000000  44.22999954
C     9.31999969  16.95000076  44.72999954
C    10.59000015  16.53000069  45.18000031
C    10.86999989  16.01000023  46.52999878
C     9.81999969  15.95000076  47.37999725
C     8.50000000  16.39000130  47.00000000
C     7.44000006  16.36999893  48.02999878
C     6.25000000  16.88999939  47.76000214
C     6.00000000  17.35999870  46.45999908
C     6.98000002  17.46000099  45.52000046
C     8.28999996  16.95999908  45.70999908
C    12.32999992  15.90000057  46.68000031
C    13.07000065  16.28999901  45.56000137
C    14.48999977  16.21000099  45.56000137
C     4.51999998  17.60000038  46.07999802
H     4.23768234  17.04984283  45.18237686
H     9.18000031  17.51000023  43.81000137
H     9.89000034  15.51000023  48.36999893
H     7.65999985  15.98000050  49.02000046
H     5.46000004  16.80999947  48.50999832
H     6.71000004  17.82999992  44.52999878
H    15.01000023  16.22999954  44.61000061
H     4.01999998  17.25000000  46.98999786
H     4.41000032  18.68999863  46.05999756
S    15.34000015  15.11999989  49.22999954
C    17.95999908  14.50000000  48.62999725
C    16.70999908  14.93999958  48.22000122
C    16.47999954  15.53999996  46.93000031
C    17.54999924  15.60999966  46.00999832
C    18.78999901  14.98000050  46.38000107
C    19.88000107  15.05000019  45.47999954
C    21.09999847  14.65999985  45.90000153
C    21.38000107  14.09000015  47.22999954
C    20.29999924  13.94000053  48.11000061
C    19.00000000  14.44000053  47.70999908
C    15.07999992  15.84000015  46.77999878
C    14.29999924  15.59000015  47.91999817
C    12.89999962  15.57999992  47.90999985
C    22.80999947  13.59000015  47.52999878
H    23.14351463  14.05124378  48.45957947
H    18.18000031  14.18000031  49.64000320
H    17.45000076  15.88999939  44.97000122
H    19.79999924  15.55999947  44.52999878
H    21.87999916  14.63999939  45.13999939
H    20.46999931  13.52000046  49.09999847
H    12.27000046  15.19000053  48.70999908
H    23.52999878  13.80000019  46.73999786
H    22.77000046  12.51000023  47.70000076
S    16.01000023  12.10000038  52.49000168
C    18.57999992  11.61000061  51.56000137
C    17.25000000  11.67000008  51.29000092
C    16.77000046  11.44000053  49.98000336
C    17.61999893  11.10999966  48.88999939
C    18.96999931  10.90999985  49.20999908
C    19.92000008  10.52000046  48.22999954
C    21.19999886  10.31999969  48.56999969
C    21.68999863  10.77000046  49.86999893
C    20.81000137  11.31999969  50.83000183
C    19.43000031  11.19999981  50.56999969
C    15.38000011  11.79999924  49.93999863
C    14.75000000  12.15000057  51.17000198
C    13.40999985  12.38000011  51.27999878
C    23.11000061  10.36000061  50.15999603
H    23.46304893  10.80671692  51.08945847
H    19.00000000  12.03999996  52.47000122
H    17.27000046  11.00000000  47.87000275
H    19.67000008  10.36000061  47.18000031
H    21.88999939   9.77999973  47.91999817
H    21.14000130  11.72000027  51.77999878
H    12.97999954  12.36999989  52.27000427
H    23.09999847   9.26999950  50.25000000
H    23.77000046  10.65000057  49.33000183
S    12.18000031  11.65999985  47.64999771
C     9.39000034  12.13999939  48.30999756
C    10.76000023  12.17000008  48.64999771
C    11.10999966  12.56000042  50.00000000
C    10.17000008  12.94000053  50.91999817
C     8.84000015  13.00000000  50.50000000
C     7.86999989  13.43000031  51.38000107
C     6.52999973  13.59000015  51.09000397
C     6.11000013  13.30000019  49.72999954
C     7.00999975  12.71999931  48.86000061
C     8.38999939  12.61999989  49.19000244
C    12.57999992  12.41000080  50.08999634
C    13.22999954  12.10000038  48.88999939
C    14.55999947  11.84999943  48.81000137
C     4.65000010  13.50999928  49.34000015
H     4.40697193  13.06560421  48.37483215
H     9.06000042  11.84999943  47.30999756
H    10.43000031  13.22999954  51.93000031
H     8.27000046  13.76000023  52.34000397
H     5.82000017  13.99000072  51.79999924
H     6.70000029  12.43999958  47.85999680
H    15.01999950  11.87000084  47.83000183
H     4.53000021  14.60000038  49.36999893
H     4.02999973  13.15000057  50.17000198
