96

S    12.77999973  16.44000053  44.06999969
C    10.03999901  16.77999878  44.87999725
C    11.35000038  16.36999893  45.15999603
C    11.71000004  15.81999969  46.44000244
C    10.78999996  15.73999977  47.45999908
C     9.44999981  16.26000023  47.22000122
C     8.36999989  16.13000107  48.15999985
C     7.11000013  16.67000008  47.83000183
C     6.84000015  17.09000015  46.52000046
C     7.81000042  17.13999939  45.61999893
C     9.10000038  16.79000092  45.91999817
C    13.09999943  15.32999992  46.47999573
C    13.81000042  15.65999985  45.30000305
C    15.21000004  15.64000034  45.25000000
C     5.44000053  17.31999969  46.13999939
H     5.04588223  16.69657898  45.33742905
H     9.82999992  16.90999985  43.81999969
H    10.90999985  15.24000072  48.41999817
H     8.56999969  15.57000065  49.06999969
H     6.37000036  16.54999924  48.61999893
H     7.65999985  17.43000031  44.58000183
H    15.72999954  15.98000050  44.36000061
H     4.76999998  17.10000038  46.97999954
H     5.38000011  18.38999939  45.90000153
S    16.23999977  14.68000031  48.94000244
C    18.98999977  14.42000008  48.30999756
C    17.72999954  14.72000027  47.94000244
C    17.38999939  15.14000034  46.65000153
C    18.39999962  15.10000038  45.72000122
C    19.76000023  14.81999969  46.04000092
C    20.75000000  14.73000050  45.01999664
C    21.98999786  14.22999954  45.35999680
C    22.34999847  14.14999962  46.72000122
C    21.38999939  14.11000061  47.69000244
C    20.03000069  14.42999935  47.34000397
C    15.95999908  15.26000023  46.39999771
C    15.19000053  14.92000008  47.56000137
C    13.78999901  14.85000038  47.56999969
C    23.71000099  14.04000092  47.21000290
H    23.86149788  14.19871140  48.27769089
H    19.20999908  14.22999954  49.34999847
H    18.09999847  15.15999985  44.66999817
H    20.29000092  14.78999996  44.03999710
H    22.72999954  14.22999954  44.56999969
H    21.61999893  14.02999973  48.74000168
H    13.27999973  14.56999969  48.47999954
H    24.40999985  14.77000046  46.79000092
H    24.10000038  13.04999924  46.97999954
S    11.92999935  16.46999931  50.87999725
C     9.26999950  16.94000053  51.52999878
C    10.44000053  16.44000053  51.88000107
C    10.59000015  15.75000000  53.11999893
C     9.47000027  15.77000046  54.03999710
C     8.26000023  16.29999924  53.61000061
C     7.05999947  16.14999962  54.38000107
C     5.84000015  16.65999985  53.94000244
C     5.77000046  17.23999977  52.70000076
C     6.81999969  17.23999977  51.84000015
C     8.07999992  16.77999878  52.27000427
C    12.05999947  15.54999924  53.36999893
C    12.82999992  15.82999992  52.21000290
C    14.26000023  15.85000038  52.16999817
C     4.46000004  17.80999947  52.22000122
H     3.95371819  17.08266640  51.58536530
H     9.23999977  17.60000038  50.65999985
H     9.68000031  15.19000053  54.93000031
H     7.09999990  15.72999954  55.38000107
H     4.90999985  16.50000000  54.50000000
H     6.70000029  17.82999992  50.93000031
H    14.80999947  16.13000107  51.26999664
H     3.81000018  18.09000015  53.06000137
H     4.73000002  18.68999863  51.63000107
S    15.18000031  14.60999966  55.79999924
C    17.87999916  14.56999969  55.26000214
C    16.62999916  14.88000011  54.86000061
C    16.39000130  15.43000031  53.56999969
C    17.38999939  15.76000023  52.65999603
C    18.71999931  15.47999954  53.06999969
C    19.70999908  15.43000031  52.08000183
C    20.97999954  15.06000042  52.35000229
C    21.28999901  14.50000000  53.66000366
C    20.28000069  14.35999966  54.54999924
C    18.96000099  14.82999992  54.33000183
C    14.91000080  15.55999947  53.33000183
C    14.14999962  15.24000072  54.48999786
C    12.77999973  15.31999969  54.55999756
C    22.65999985  13.94000053  53.89999771
H    23.25787544  14.48683834  54.62911606
H    18.02000046  14.04999924  56.20999908
H    17.14999962  15.90000057  51.59999847
H    19.31999969  15.86999989  51.16000366
H    21.77000046  15.26000023  51.62000275
H    20.48000145  13.89000034  55.52000046
H    12.25000000  15.22999954  55.50000000
H    23.18000031  14.11999893  52.95000076
H    22.62000084  12.84999943  53.95000076
