96

S    12.01000023  16.13999939  44.22000122
C     9.39999962  16.77999878  44.95999908
C    10.60999966  16.39999962  45.33000183
C    10.95000076  16.20000076  46.65999985
C     9.98999977  16.39000130  47.57999802
C     8.59000015  16.60000038  47.29000092
C     7.49000025  16.69000053  48.20999908
C     6.28999996  17.22999954  47.84999847
C     6.10000038  17.53000069  46.47999573
C     7.07000017  17.30999947  45.59999847
C     8.36999989  16.90999985  45.94999695
C    12.41000080  15.88999939  46.79000092
C    13.07999992  15.88000107  45.52999878
C    14.42000008  15.77000046  45.38000107
C     4.71000004  17.87999916  45.97000122
H     4.47224045  17.43245316  45.00497818
H     9.10000038  17.02000046  43.94000244
H    10.27999973  16.20000076  48.61000061
H     7.59000015  16.21999931  49.19000244
H     5.50000000  17.13000107  48.57999802
H     6.94000006  17.61000061  44.55999756
H    14.78000069  15.80999947  44.36000061
H     4.01999998  17.53999901  46.76000214
H     4.56999969  18.96999931  45.93000031
S    15.62999916  15.26000023  49.13999939
C    18.30999947  15.07999992  48.36999893
C    17.00000000  15.40999985  48.02999878
C    16.60000038  15.52999973  46.65999985
C    17.56000137  15.54999924  45.65999985
C    18.86999893  15.32999992  45.93999863
C    19.88999939  15.38000011  44.95999908
C    21.14999962  14.98999977  45.22999573
C    21.63999939  14.61999989  46.50000000
C    20.69000053  14.63000107  47.56999969
C    19.31999969  14.98000050  47.30999756
C    15.18000031  15.67000008  46.56000137
C    14.52999973  15.52999973  47.81000137
C    13.17000008  15.60999966  47.93000031
C    23.05999947  14.21000004  46.72000122
H    23.40887260  14.54491711  47.69684219
H    18.38999939  14.61999989  49.36000061
H    17.31999969  15.86999989  44.65000153
H    19.47000122  15.60999966  43.97999573
H    21.94999886  15.00000000  44.50000000
H    21.07999992  14.32000065  48.54000092
H    12.71000004  15.29000092  48.86000061
H    23.69999886  14.70999908  45.97000122
H    23.29000092  13.14000034  46.66999817
S    16.34000015  12.46000099  52.49000168
C    18.98999977  12.09000015  51.68000031
C    17.65999985  12.03999996  51.38999939
C    17.18000031  11.69999981  50.07999802
C    18.04000092  11.46999931  49.02999878
C    19.47999954  11.50000000  49.27000046
C    20.38000107  11.21999931  48.20999908
C    21.73000145  10.84000015  48.48999786
C    22.17000008  10.95000076  49.80999756
C    21.32999802  11.50000000  50.80999756
C    19.93000031  11.73999977  50.61999893
C    15.72999954  11.87999916  49.98000336
C    15.13000011  12.28999996  51.20999908
C    13.78999901  12.64999962  51.24000168
C    23.62999916  10.76000023  50.06999969
H    23.92812157  11.07231903  51.07083893
H    19.43000031  12.18999958  52.67000198
H    17.69000053  11.31000042  48.01000214
H    19.97999954  11.00000000  47.22000122
H    22.36000061  10.55999947  47.64999771
H    21.65999985  11.64999962  51.83000183
H    13.38999939  13.10999966  52.15000153
H    23.80000114   9.70000076  49.87999725
H    24.30000114  11.18999958  49.31999969
S    12.50000000  11.92999935  47.50999832
C     9.85999966  12.43999958  48.26000214
C    11.16000080  12.34000015  48.56999969
C    11.56999969  12.65999985  49.88999939
C    10.62999916  13.09999943  50.86000061
C     9.34000015  13.22000027  50.52000046
C     8.31999969  13.69999981  51.45000076
C     7.03999996  13.71000099  51.11999893
C     6.63000011  13.48000050  49.78000259
C     7.55000019  13.00000000  48.90999603
C     8.93000031  12.84999943  49.22999954
C    13.01000023  12.48999977  50.06000137
C    13.64999962  12.10000038  48.83999634
C    15.01999950  11.79999924  48.83999634
C     5.29999971  13.94999981  49.34000015
H     5.16049719  13.62914371  48.30767822
H     9.55000019  12.27000046  47.22999954
H    11.09000015  13.34000015  51.81999969
H     8.63000011  13.89999962  52.47000122
H     6.34999990  14.19999981  51.79999924
H     7.35000038  12.79000092  47.85999680
H    15.52000046  11.39999962  47.95999908
H     5.19999981  15.03999901  49.41999817
H     4.48000002  13.50999928  49.91000366
