96

S    12.18000031  17.10000038  44.25000000
C     9.48000050  17.35999870  45.00000000
C    10.72999954  16.87000084  45.20999908
C    10.98999977  16.22999954  46.50000000
C     9.88000011  15.95000076  47.41000366
C     8.61999989  16.39999962  47.14000320
C     7.63999987  16.28999901  48.11999893
C     6.39999962  16.77000046  47.87000275
C     6.09000015  17.43000031  46.69000244
C     7.09000015  17.54999924  45.70000076
C     8.38000011  17.05000114  45.86000061
C    12.39999962  16.03999901  46.76000214
C    13.15999985  16.56999969  45.65999985
C    14.57999992  16.52000046  45.65999985
C     4.69999981  17.77000046  46.25000000
H     4.36043835  17.02013397  45.53550720
H     9.35999966  18.06999969  44.18000031
H    10.18000031  15.53999996  48.36999893
H     8.01000023  15.80000019  49.02000046
H     5.61999989  16.45000076  48.55999756
H     6.80999994  18.18000031  44.86000061
H    15.21000004  16.92000008  44.86000061
H     3.98999977  18.05999947  47.02999878
H     4.75000000  18.71000099  45.70000076
S    15.44000053  15.03999901  49.22000122
C    18.22000122  14.78000069  48.54999924
C    16.93000031  15.24000072  48.26000214
C    16.62999916  15.75000000  46.98999786
C    17.61999893  15.88000107  46.10000229
C    18.92000008  15.53999996  46.38000107
C    19.89999962  15.57999992  45.38999939
C    21.17000198  15.01000023  45.59999847
C    21.51000023  14.53999996  46.90000153
C    20.55999947  14.40000057  47.84000015
C    19.25000000  14.93999958  47.62000275
C    15.25000000  15.90999985  46.76000214
C    14.42999935  15.52000046  47.88000107
C    13.02999973  15.53999996  47.87000275
C    22.90999985  14.18000031  47.29000092
H    23.33711433  14.79616547  48.08121109
H    18.38999939  14.14000034  49.41999817
H    17.52000046  16.31999969  45.12000275
H    19.48999977  15.80000019  44.40999985
H    21.76000214  14.93000031  44.69999695
H    20.81000137  13.86999989  48.75999832
H    12.48000050  15.05000019  48.67000198
H    23.57999992  14.14000034  46.42000198
H    22.76000023  13.12000084  47.52999878
S    11.90999985  16.65999985  51.26999664
C     9.28999996  16.87000084  52.02000046
C    10.52000046  16.48999977  52.29000092
C    10.88999939  16.06999969  53.62999725
C     9.94000053  16.10000038  54.61000061
C     8.61999989  16.54000092  54.31000137
C     7.55000019  16.40999985  55.20999908
C     6.26999950  16.88999939  54.87999725
C     6.01999998  17.38999939  53.54999924
C     7.04999971  17.56000137  52.68000031
C     8.31999969  17.01000023  53.00000000
C    12.30000019  15.90999985  53.79000092
C    12.98999977  16.28000069  52.61000061
C    14.39000034  16.36000061  52.48000336
C     4.59999990  17.92000008  53.22000122
H     4.12129545  17.21298981  52.54244995
H     9.10000038  17.23999977  51.02000427
H    10.14000034  15.54999924  55.52999878
H     7.75000000  15.80000019  56.07999802
H     5.46000004  16.80999947  55.59999847
H     6.91999960  17.97000122  51.68000031
H    14.88999939  16.54000092  51.52999878
H     3.98999977  17.98999977  54.13000107
H     4.56999969  18.89999962  52.72999573
S    15.75000000  15.25000000  56.02000427
C    18.35000038  14.86999989  55.20000076
C    17.04000092  15.36999893  54.91000366
C    16.62999916  15.64000034  53.62999725
C    17.52000046  15.52000046  52.56999969
C    18.88000107  15.29000092  52.83000183
C    19.79999924  15.34000015  51.81999969
C    21.09000015  14.98000050  52.04999924
C    21.57999992  14.61999989  53.36000061
C    20.66999817  14.60999966  54.34000015
C    19.29999924  14.96999931  54.15000153
C    15.19000053  15.98000050  53.56999969
C    14.50000000  15.67000008  54.75000000
C    13.09999943  15.57000065  54.87999725
C    23.02999878  14.42999935  53.61000061
H    23.31201744  14.80602360  54.59344864
H    18.60000038  14.28999996  56.09000397
H    17.13999939  15.55999947  51.55000305
H    19.45999908  15.75000000  50.86999893
H    21.80000114  14.86999989  51.24000168
H    20.98999977  14.15999985  55.27000046
H    12.60000038  15.26999950  55.79000092
H    23.52999878  15.03999901  52.84999847
H    23.36000061  13.38000107  53.50999832
