96

S    12.11999989  16.84000015  44.05000305
C     9.43000031  17.11000061  44.75000000
C    10.65999985  16.69000053  45.10000229
C    10.90000057  16.10000038  46.37000275
C     9.98000050  15.95000076  47.35000229
C     8.67000008  16.43000031  47.06999969
C     7.75000000  16.46000099  48.09999847
C     6.51999998  17.04000092  47.95000076
C     6.17000008  17.61000061  46.70999908
C     7.11999989  17.53999901  45.68999863
C     8.39999962  16.97000122  45.79000092
C    12.34000015  15.82999992  46.56999969
C    13.04999924  16.31000137  45.44000244
C    14.47000027  16.28000069  45.45000076
C     4.69999981  18.06999969  46.39999771
H     4.29144144  17.45716286  45.59650040
H     9.21000004  17.68000031  43.85000229
H    10.47999954  15.76000023  48.29999924
H     8.09000015  16.03999901  49.05000305
H     5.88999987  17.09000015  48.82999802
H     6.85999966  17.94000053  44.71000290
H    14.93999958  16.61000061  44.52999878
H     4.21000004  17.94000053  47.36999893
H     4.71000004  19.10000038  46.04000092
S    15.50000000  14.96999931  49.03999710
C    18.26000023  14.72000027  48.36000061
C    16.95000076  15.00000000  48.01000214
C    16.53000069  15.46000004  46.69000244
C    17.52000046  15.59999943  45.72000122
C    18.90999985  15.53999996  46.12999725
C    19.98999977  15.72000027  45.22999573
C    21.35999870  15.47999954  45.52000046
C    21.70000076  14.98000050  46.77999878
C    20.65000153  14.75000000  47.68000031
C    19.29000092  15.08999920  47.43000031
C    15.08999920  15.72999954  46.56000137
C    14.40000057  15.43000031  47.76000214
C    13.02000046  15.40999985  47.70999908
C    23.03999901  14.39000034  47.11999893
H    23.43065453  14.88719749  48.00785065
H    18.52000046  14.28999996  49.31999969
H    17.28999901  15.77999973  44.66999817
H    19.80999947  15.88999939  44.16999817
H    22.20000076  15.46000004  44.82999802
H    20.79999924  14.14999962  48.56999969
H    12.39999962  15.01999950  48.50999832
H    23.68999863  14.55000019  46.25000000
H    23.00000000  13.31999969  47.34000397
S    11.43000031  16.81999969  50.79999924
C     8.84000015  17.53999901  51.75000000
C    10.06000042  16.93000031  51.93000031
C    10.42000008  16.45000076  53.22000122
C     9.40999985  16.36000061  54.18000031
C     8.17000008  16.90000153  54.05000305
C     7.16000032  16.70999908  54.99000168
C     5.88999987  17.20999908  54.71000290
C     5.50000000  17.79999924  53.46000290
C     6.54999971  17.97999954  52.56000137
C     7.83999968  17.53000069  52.81999969
C    11.92000008  16.28999901  53.36000061
C    12.55000019  16.34000015  52.09999847
C    13.96999931  16.38000107  52.08000183
C     4.11000013  18.07999992  53.02999878
H     3.81132603  17.39020538  52.24064636
H     8.64000034  17.89999962  50.73999786
H     9.56999969  15.62000084  54.97000122
H     7.36999989  16.18000031  55.91999817
H     5.09000015  16.97000122  55.40999985
H     6.44999981  18.43000031  51.58000183
H    14.37000084  16.52000046  51.07999802
H     3.53999996  18.11000061  53.96999741
H     4.15000010  19.10000038  52.63999939
S    15.11999989  15.55999947  55.77999878
C    17.79999924  15.22999954  55.15999603
C    16.54999924  15.71000004  54.72000122
C    16.23999977  16.02000046  53.36999893
C    17.31999969  15.98999977  52.45999908
C    18.63000107  15.62999916  52.88999939
C    19.68000031  15.47000027  51.90000153
C    20.93000031  15.14000034  52.30999756
C    21.19999886  14.70000076  53.67000198
C    20.17999840  14.70000076  54.59999847
C    18.84000015  15.17000008  54.26000214
C    14.77000046  16.18000031  53.20000076
C    14.07999992  15.98000050  54.40999985
C    12.69999981  16.10000038  54.48999786
C    22.62000084  14.40000057  54.13000107
H    23.08255577  15.12274265  54.80215073
H    17.97000122  14.94999981  56.18999863
H    17.10000038  16.23999977  51.43000031
H    19.54000092  15.64000034  50.83000183
H    21.71999931  15.24000072  51.58000183
H    20.39999962  14.40999985  55.61999893
H    12.13000107  15.97000027  55.40000153
H    23.09999847  14.34999943  53.15000153
H    22.65999985  13.38999939  54.56999969
