96

S    12.46000099  16.46000099  44.43999863
C     9.77999973  16.87000084  45.04000092
C    10.97000027  16.26000023  45.35999680
C    11.30000019  15.72999954  46.68000031
C    10.27999973  15.75000000  47.63999939
C     9.02999973  16.22999954  47.28000259
C     7.95000029  16.02000046  48.16999817
C     6.70000029  16.47999954  47.88999939
C     6.43000031  17.19000053  46.66999817
C     7.46000004  17.27000046  45.73999786
C     8.73999977  16.81999969  45.97999954
C    12.74000072  15.65999985  46.90999985
C    13.45999908  15.95999908  45.77000046
C    14.82999992  15.88999939  45.72000122
C     5.03000021  17.51000023  46.30000305
H     4.72299385  16.96576118  45.40689087
H     9.52999973  17.28000069  44.06999969
H    10.47999954  15.17000008  48.54999924
H     8.17000008  15.52000046  49.10999680
H     5.88000011  16.13000107  48.52000427
H     7.26999998  17.67000008  44.73999786
H    15.25000000  16.06999969  44.72999954
H     4.36999989  17.35000038  47.16999817
H     4.96000004  18.57999992  46.05999756
S    15.95000076  14.75999928  49.31999969
C    18.67000008  14.82999992  48.64999771
C    17.36999893  15.06000042  48.34999847
C    16.98999977  15.57999992  47.04000092
C    17.97000122  15.86999989  46.11999893
C    19.30999947  15.43000031  46.33999634
C    20.29999924  15.50000000  45.31999969
C    21.61999893  15.21999931  45.59000015
C    21.94000053  14.56999969  46.86000061
C    20.96999931  14.44000053  47.80000305
C    19.67000008  14.92000008  47.62000275
C    15.57000065  15.65000057  46.84999847
C    14.85000038  15.29000092  47.98999786
C    13.43000031  15.31999969  48.02999878
C    23.31999969  14.15999985  47.16999817
H    23.61579895  14.47692585  48.17007828
H    18.93000031  14.35999966  49.59000015
H    17.77000046  16.42000008  45.20999908
H    20.10999870  16.07999992  44.40999985
H    22.39000130  15.44999981  44.86999893
H    21.18000031  13.89999962  48.72000122
H    12.98999977  15.11999989  49.00000000
H    24.09000015  14.60999966  46.52999878
H    23.34000015  13.05999947  47.11000061
S    11.76000023  16.59000015  50.98999786
C     9.11000061  16.72999954  51.70000076
C    10.34999943  16.22999954  51.93000031
C    10.71000004  15.67000008  53.15000153
C     9.77000046  15.48999977  54.13000107
C     8.40999985  15.84000015  53.90999603
C     7.36000013  15.59999943  54.75000000
C     6.06999969  16.04999924  54.58000183
C     5.75999975  16.84000015  53.44999695
C     6.77999973  17.06999969  52.55000305
C     8.05999947  16.50000000  52.64999771
C    12.11999989  15.59999943  53.39000320
C    12.82999992  16.13000107  52.31999969
C    14.25000000  16.26000023  52.43999863
C     4.32999992  17.27000046  53.09999847
H     4.04098988  16.65492821  52.24779129
H     9.00000000  17.43999863  50.89000320
H     9.98999977  14.96000099  55.06000137
H     7.59000015  15.07999992  55.66999817
H     5.32999992  15.67999935  55.28999710
H     6.76999998  17.86999893  51.81999969
H    14.88000011  16.63999939  51.65000153
H     3.68999982  17.02000046  53.95999908
H     4.28000021  18.34000015  52.87000275
S    15.21999931  14.47000027  55.90000153
C    17.80999947  14.30999947  55.19000244
C    16.55999947  14.80999947  54.93000031
C    16.28999901  15.55999947  53.75000000
C    17.39999962  15.77999973  52.88999939
C    18.67000008  15.34000015  53.15000153
C    19.77000046  15.34999943  52.27000427
C    21.00000000  14.78000069  52.43999863
C    21.21000099  14.00000000  53.60000229
C    20.12000084  14.01000023  54.52000046
C    18.89000130  14.65000057  54.36999893
C    14.85000038  15.67999935  53.54000092
C    14.11999893  15.13000011  54.56999969
C    12.71999931  15.18000031  54.56999969
C    22.59000015  13.63000011  54.06999969
H    22.84293556  14.12142086  55.00948334
H    17.93000031  13.48999977  55.90000153
H    17.09000015  16.20000076  51.93000031
H    19.77000046  15.77999973  51.27999878
H    21.71999931  14.82999992  51.62000275
H    20.22999954  13.34000015  55.38000107
H    12.11999989  14.93000031  55.44000244
H    23.36000061  13.78999901  53.29999924
H    22.53000069  12.56000042  54.27000046
