96

S    12.50000000  16.72999954  44.59000015
C     9.86999989  16.81999969  45.12000275
C    11.09000015  16.35000038  45.52999878
C    11.43000031  15.81999969  46.79000092
C    10.47000027  15.65999985  47.74000168
C     9.13000011  16.10999870  47.38999939
C     8.01000023  16.11999893  48.27999878
C     6.76999998  16.54000092  47.93000031
C     6.54999971  17.02000046  46.63000107
C     7.55999994  17.19000053  45.72999954
C     8.89999962  16.75000000  46.10000229
C    12.88000011  15.72999954  47.02000046
C    13.57999992  16.14999962  45.86000061
C    14.98999977  16.17000008  45.77000046
C     5.13000011  17.38000107  46.30000305
H     4.78061724  16.82384109  45.43010712
H     9.63000011  17.23999977  44.15000153
H    10.70000076  15.18000031  48.68000031
H     8.05999947  15.62999916  49.25000000
H     5.95000029  16.23999977  48.55999756
H     7.30000019  17.61999893  44.77000427
H    15.57000065  16.54999924  44.93000031
H     4.61000013  16.90999985  47.15000153
H     5.00000000  18.46999931  46.23000336
S    16.10000038  15.01000023  49.34999847
C    18.73999977  14.52999973  48.54999924
C    17.45000076  14.93999958  48.22000122
C    17.07999992  15.40999985  46.95000076
C    18.04999924  15.47999954  46.00000000
C    19.38999939  15.08999920  46.26999664
C    20.43000031  15.10000038  45.27000046
C    21.68999863  14.72000027  45.59999847
C    21.98999786  14.21000004  46.86999893
C    21.07000160  14.22000027  47.84999847
C    19.73999977  14.68000031  47.62000275
C    15.65000057  15.80999947  46.90000153
C    14.98999977  15.50000000  48.08000183
C    13.61999989  15.34000015  48.13999939
C    23.38000107  13.71000099  47.28000259
H    23.73219681  14.37037182  48.07244873
H    18.86000061  14.01999950  49.50000000
H    17.81999969  15.90000057  45.01999664
H    20.25000000  15.29000092  44.20999908
H    22.44999886  14.72000027  44.81999969
H    21.21000099  13.75000000  48.81999969
H    13.12999916  15.08999920  49.06999969
H    23.87000084  13.78000069  46.30000305
H    23.18000031  12.64999962  47.50999832
S    16.32999992  12.35999966  52.39999771
C    18.89000130  11.97999954  51.53999710
C    17.56000137  11.84999943  51.27999878
C    17.00000000  11.25000000  50.11000061
C    17.84000015  10.76000023  49.05000305
C    19.22999954  10.84000015  49.25000000
C    20.15999985  10.34999943  48.26000214
C    21.51000023  10.36000061  48.40999985
C    22.04000092  10.93999958  49.68999863
C    21.14999962  11.51000023  50.59999847
C    19.71999931  11.51999950  50.45000076
C    15.54999924  11.50000000  50.04000092
C    14.96999931  12.03999996  51.24000168
C    13.60000038  12.25999928  51.33999634
C    23.54000092  10.65999985  50.05000305
H    23.83053207  10.95053101  51.05959702
H    19.37000084  12.35999966  52.43999863
H    17.39999962  10.43000031  48.11000061
H    19.81999969   9.76000023  47.41000366
H    22.21999931   9.77000046  47.83000183
H    21.51000023  11.87999916  51.55000305
H    13.15999985  12.68000031  52.23999786
H    23.77000046   9.59999943  49.87999725
H    24.15999985  11.23000050  49.34000015
S    12.18999958  11.54000092  47.70999908
C     9.55000019  12.20999908  48.47999954
C    10.90999985  12.06999969  48.81999969
C    11.38000011  12.32999992  50.12000275
C    10.39999962  12.76999950  50.96000290
C     8.98999977  12.94999981  50.65999985
C     8.01999950  13.45000076  51.55000305
C     6.71999979  13.67000008  51.09000397
C     6.25000000  13.23999977  49.84000397
C     7.20000029  12.71999931  49.06000137
C     8.56999969  12.56000042  49.43999863
C    12.86000061  12.10000038  50.20000076
C    13.40999985  11.69999981  48.95999908
C    14.73999977  11.49000072  48.89999771
C     4.85000038  13.47000027  49.47000122
H     4.61582041  13.45580769  48.40554810
H     9.25000000  12.20999908  47.43999863
H    10.73999977  13.21000004  51.88999939
H     8.34999943  13.80000019  52.51999664
H     5.98000002  14.11000061  51.75000000
H     7.00999975  12.61000061  48.00000000
H    15.29999924  11.26999950  48.00000000
H     4.53999996  14.44000053  49.87999725
H     4.19999981  12.71999931  49.93999863
