96

S    12.28999996  16.47999954  44.36999893
C     9.59999943  16.65999985  45.01999664
C    10.85000038  16.21000099  45.38000107
C    11.14999962  15.77000046  46.69000244
C    10.13000011  15.77999973  47.57999802
C     8.78999996  16.21000099  47.18000031
C     7.68000031  16.15999985  48.13000107
C     6.42000008  16.48999977  47.71999741
C     6.19000006  17.11000061  46.47999573
C     7.18999958  17.17000008  45.54000092
C     8.51000023  16.64999962  45.90000153
C    12.60000038  15.77999973  46.88999939
C    13.28999996  16.10999870  45.72999954
C    14.68999958  16.18000031  45.63000107
C     4.75000000  17.59000015  46.14999771
H     4.24195004  16.96523666  45.41538620
H     9.50000000  17.09000015  44.02999878
H    10.26999950  15.21000004  48.48999786
H     7.85000038  15.77000046  49.13000107
H     5.60999966  16.40999985  48.43999863
H     7.07999992  17.56999969  44.54000092
H    15.21999931  16.40999985  44.71000290
H     4.23000002  17.59000015  47.11000061
H     4.80999994  18.63000107  45.80999756
S    15.57999992  15.31999969  49.34000015
C    18.38000107  15.14000034  48.80000305
C    17.11000061  15.48999977  48.43999863
C    16.79999924  15.90999985  47.09999847
C    17.86000061  15.95000076  46.16000366
C    19.18000031  15.70000076  46.52999878
C    20.31999969  15.72999954  45.63000107
C    21.47000122  15.14000034  45.97999954
C    21.68999863  14.63000107  47.23999786
C    20.73999786  14.78000069  48.18000031
C    19.43000031  15.31999969  47.88999939
C    15.36999893  16.03000069  46.84999847
C    14.57999992  15.76000023  47.98999786
C    13.25000000  15.62999916  48.04999924
C    23.02000046  14.01999950  47.57999802
H    23.50355721  14.56851387  48.38833237
H    18.45999908  14.61999989  49.75000000
H    17.61000061  16.09000015  45.11000061
H    20.26000023  16.14999962  44.61999893
H    22.14999962  15.06000042  45.13999939
H    20.71000099  14.25000000  49.13000107
H    12.69999981  15.50000000  48.96999741
H    23.71000099  13.76000023  46.76000214
H    22.63999939  13.01000023  47.74000168
S    16.17000008  12.43999958  51.97999954
C    18.85000038  11.90000057  51.30000305
C    17.48999977  11.92999935  50.87999725
C    17.07999992  11.69000053  49.54000092
C    18.04000092  11.46999931  48.61999893
C    19.40000153  11.40999985  48.90999603
C    20.26000023  10.78999996  48.00000000
C    21.51000023  10.43000031  48.46000290
C    22.01999855  10.80999947  49.72999954
C    21.15999985  11.40999985  50.63000107
C    19.77000046  11.64000034  50.30000305
C    15.65000057  11.82000065  49.36999893
C    15.03000069  12.35999966  50.56999969
C    13.71000099  12.69000053  50.70999908
C    23.42000008  10.40999985  50.20000076
H    23.67266464  10.75144005  51.20383453
H    19.23999977  12.05000019  52.29999924
H    17.70000076  10.95999908  47.71999741
H    19.90999985  10.31000042  47.09000015
H    22.09000015   9.76000023  47.84000015
H    21.35999870  11.67000008  51.65999985
H    13.27999973  12.86999893  51.69000244
H    23.42000008   9.30999947  50.22999573
H    24.13999939  10.77999973  49.45999908
S    12.23000050  11.87000084  47.02000046
C     9.59999943  12.28999996  47.88999939
C    10.93999958  12.22000027  48.15000153
C    11.42000008  12.46999931  49.51000214
C    10.52000046  12.79999924  50.50000000
C     9.15000057  12.89999962  50.19000244
C     8.23000050  13.31999969  51.20999908
C     6.91999960  13.50999928  50.94999695
C     6.42000008  13.19000053  49.66999817
C     7.26000023  12.71999931  48.66000366
C     8.71000004  12.63000011  48.95000076
C    12.89000034  12.41000080  49.59999847
C    13.43000031  11.97999954  48.34999847
C    14.78999996  11.69999981  48.25000000
C     4.98000002  13.38999939  49.36000061
H     4.82250261  13.15375328  48.30763245
H     9.18000031  12.01000023  46.93000031
H    10.77999973  12.97999954  51.53999710
H     8.73000050  13.71999931  52.09000015
H     6.19999981  13.92000008  51.65999985
H     6.94999981  12.55000019  47.63000107
H    15.21999931  11.39999962  47.29000092
H     4.73000002  14.40999985  49.68000031
H     4.46000004  12.75000000  50.06999969
