96

S    12.02000046  16.03000069  44.20000076
C     9.43000031  16.27000046  44.82999802
C    10.67000008  15.84000015  45.19000244
C    10.95999908  15.39000034  46.49000168
C     9.90999985  15.38000011  47.39999771
C     8.63000011  15.95999908  47.14000320
C     7.60999966  16.01000023  48.08000183
C     6.32000017  16.47999954  47.70999908
C     6.07999992  17.04000092  46.38999939
C     7.13000011  17.07999992  45.45000076
C     8.38999939  16.44000053  45.79999924
C    12.35999966  15.14000034  46.70000076
C    13.12999916  15.57000065  45.54999924
C    14.52000046  15.53999996  45.52000046
C     4.69000006  17.53000069  45.98999786
H     4.26275969  16.84506035  45.25759125
H     9.15000057  16.77000046  43.90999603
H    10.01000023  15.03999901  48.41999817
H     7.65999985  15.54999924  49.06000137
H     5.44000053  16.28000069  48.30999756
H     6.91999960  17.43999863  44.43999863
H    14.94999981  15.85999966  44.58000183
H     4.07000017  17.53999901  46.88999939
H     4.79999971  18.53000069  45.54000092
S    15.62000084  14.55000019  49.13999939
C    18.34000015  14.22000027  48.55999756
C    17.02999878  14.45000076  48.15999985
C    16.62999916  14.70999908  46.77999878
C    17.70000076  14.94999981  45.89000320
C    19.04999924  14.73000050  46.32999802
C    20.13999939  15.00000000  45.47999954
C    21.42999840  14.73999977  45.80999756
C    21.70999908  14.13000011  47.05999756
C    20.69000053  14.01999950  47.95999908
C    19.40000153  14.30999947  47.63999939
C    15.19000053  14.98999977  46.63999939
C    14.47999954  14.70000076  47.81000137
C    13.09999943  14.80000019  47.88999939
C    23.11000061  13.94999981  47.43000031
H    23.41929245  14.40362835  48.37162781
H    18.56999969  13.89999962  49.56999969
H    17.45000076  15.44999981  44.94999695
H    19.79999924  15.65000057  44.68000031
H    22.22999954  15.10000038  45.17000198
H    21.01000023  13.67000008  48.94000244
H    12.56000042  14.68000031  48.82999802
H    23.71999931  14.34999943  46.60999680
H    23.43000031  12.89999962  47.39999771
S    15.65999985  12.25000000  52.18999863
C    18.27000046  11.72000027  51.45999908
C    16.92000008  11.72999954  51.14999771
C    16.42000008  11.28999901  49.92000198
C    17.23999977  10.75000000  48.95999908
C    18.61999893  10.62999916  49.29999924
C    19.61000061  10.21000004  48.40999985
C    21.01000023  10.31999969  48.72000122
C    21.40000153  10.67000008  50.01999664
C    20.45000076  11.13000011  50.83000183
C    19.09000015  11.14999962  50.51000214
C    15.01000023  11.28000069  49.88999939
C    14.44000053  11.82000065  51.05999756
C    13.17999935  12.28999996  51.16000366
C    22.86999893  10.39999962  50.43000031
H    23.19883156  10.86767197  51.35803604
H    18.65999985  12.13000107  52.38999939
H    16.93000031  10.51000023  47.95000076
H    19.37999916   9.86999989  47.41000366
H    21.70000076  10.01999950  47.94000244
H    20.66999817  11.40999985  51.86000061
H    12.76000023  12.65999985  52.09000015
H    22.95999908   9.31999969  50.61000061
H    23.55999947  10.67999935  49.62999725
S    11.67000008  11.17000008  47.72999573
C     9.22999954  12.13000107  48.36000061
C    10.47000027  12.00000000  48.68999863
C    11.02000046  12.27000046  49.93000031
C    10.11999989  12.79000092  50.86999893
C     8.73999977  12.97999954  50.61000061
C     7.73999977  13.48000050  51.46999741
C     6.40999985  13.50000000  51.11999893
C     6.05000019  13.07000065  49.89999771
C     6.91999960  12.69000053  49.00000000
C     8.30000019  12.68000031  49.29999924
C    12.38000011  12.05000019  50.08999634
C    12.89999962  11.31999969  48.97999573
C    14.21000004  10.90000057  48.81000137
C     4.63000011  12.93000031  49.51000214
H     4.46112394  12.76846695  48.44534683
H     8.80000019  11.72000027  47.44999695
H    10.43000031  13.00000000  51.88999939
H     8.07999992  13.88000011  52.42000198
H     5.71000004  13.94999981  51.81999969
H     6.57999992  12.35000038  48.02000046
H    14.56999969  10.32999992  47.95999908
H     4.09000015  13.80000019  49.91000366
H     4.23000002  12.05000019  50.01999664
