96

S    12.32999992  16.90000153  44.20999908
C     9.68999958  17.35000038  44.93000031
C    10.90000057  16.80999947  45.24000168
C    11.19999981  16.31000137  46.60999680
C    10.17000008  16.22999954  47.50000000
C     8.93000031  16.73999977  47.16999817
C     7.81000042  16.63999939  48.11000061
C     6.52999973  16.92000008  47.69000244
C     6.26999950  17.46000099  46.38999939
C     7.30999994  17.71999931  45.52000046
C     8.64000034  17.30999947  45.90999985
C    12.61000061  16.11999893  46.84999847
C    13.34000015  16.38000107  45.68000031
C    14.68999958  16.31999969  45.63000107
C     4.88000011  17.86999893  46.06999969
H     4.47835398  17.21546555  45.29645920
H     9.51000023  17.70000076  43.90999603
H    10.29000092  15.77999973  48.47999954
H     7.96000004  16.18999863  49.09000015
H     5.73999977  16.79999924  48.43999863
H     7.04999971  18.12999916  44.54999924
H    15.19000053  16.29999924  44.65999985
H     4.28000021  18.04000092  46.97999954
H     4.96000004  18.89000130  45.68999863
S    15.59000015  15.22999954  49.33000183
C    18.22999954  14.55999947  48.64999771
C    17.07999992  15.26000023  48.36999893
C    16.80999947  15.80999947  47.04000092
C    17.87999916  15.86999989  46.16000366
C    19.11000061  15.29999924  46.47999573
C    20.25000000  15.44000053  45.54000092
C    21.47999954  14.93999958  45.91999817
C    21.64999962  14.25000000  47.15999985
C    20.53999901  14.01000023  48.02999878
C    19.29999924  14.60000038  47.70999908
C    15.39000034  15.98999977  46.76000214
C    14.65000057  15.72000027  47.94000244
C    13.28999996  15.88999939  48.06999969
C    23.05000114  13.80000019  47.63999939
H    23.27298546  14.23203564  48.61556244
H    18.37000084  13.93000031  49.52999878
H    17.79999924  16.27000046  45.14999771
H    20.10999870  15.95000076  44.59999847
H    22.37999916  15.05000019  45.31999969
H    20.65000153  13.47000027  48.95999908
H    12.76000023  15.92000008  49.02000046
H    23.85000038  14.13000011  46.97000122
H    22.98999977  12.69999981  47.67000198
S    11.84000015  16.79999924  51.07999802
C     9.06999969  17.46000099  51.75000000
C    10.31999969  16.92000008  52.11000061
C    10.60999966  16.46999931  53.43999863
C     9.55000019  16.45000076  54.34000015
C     8.25000000  16.87999916  53.97999573
C     7.16000032  16.79000092  54.84000397
C     5.92999983  17.18000031  54.47999954
C     5.66999960  17.78000069  53.20999908
C     6.63999987  17.79999924  52.29999924
C     8.00000000  17.38999939  52.63000107
C    12.01000023  16.10000038  53.67000198
C    12.72999954  16.22999954  52.48000336
C    14.09000015  16.14999962  52.27000427
C     4.19000006  18.09000015  52.84999847
H     3.84310913  17.54488564  51.97214890
H     8.97999954  17.79000092  50.70999908
H     9.75000000  16.06999969  55.34000015
H     7.36000013  16.22999954  55.75000000
H     5.09000015  16.98999977  55.13000107
H     6.38999987  17.84000015  51.24000168
H    14.45000076  16.38000107  51.27999878
H     3.53999996  18.02999878  53.73000336
H     4.15999985  19.15999985  52.63000107
S    15.31000042  15.80000019  56.05999756
C    17.97000122  15.52999973  55.41999817
C    16.69000053  15.60999966  55.00000000
C    16.29999924  15.70000076  53.56999969
C    17.29999924  15.42000008  52.67000198
C    18.65999985  15.31000042  53.06000137
C    19.72999954  15.08999920  52.15999985
C    20.98999977  14.80000019  52.57999802
C    21.25000000  14.70999908  53.94000244
C    20.29000092  15.01000023  54.86999893
C    18.93000031  15.38000011  54.43999863
C    14.80000019  15.85999966  53.43999863
C    14.17000008  15.81999969  54.65999985
C    12.77999973  15.97000027  54.84000397
C    22.59000015  14.30999947  54.45000076
H    22.82649231  14.78298283  55.40313339
H    18.18000031  15.32999992  56.46999741
H    17.14999962  15.27999973  51.59999847
H    19.50000000  14.85000038  51.11999893
H    21.77000046  14.59000015  51.84000015
H    20.43999863  14.93000031  55.93999863
H    12.38000011  16.10000038  55.84000015
H    23.34000015  14.63000107  53.73000336
H    22.60999870  13.21000004  54.52000046
