96

S    12.61999989  16.69999886  44.36000061
C     9.94999981  17.12000084  45.15999603
C    11.23000050  16.72000122  45.47999954
C    11.51000023  16.13999939  46.72999954
C    10.50000000  16.03999901  47.68000031
C     9.17000008  16.46000099  47.42000198
C     8.05000019  16.31999969  48.36000061
C     6.76000023  16.77000046  48.08000183
C     6.51999998  17.38000107  46.79000092
C     7.53000021  17.48999977  45.86999893
C     8.85999966  16.97999954  46.12999725
C    12.94999981  15.78999996  46.83000183
C    13.68999958  16.21000099  45.68999863
C    15.08999920  16.29999924  45.68999863
C     5.12000036  17.71000099  46.31000137
H     4.82456923  17.10436630  45.45324707
H     9.72000027  17.39999962  44.13000107
H    10.71000004  15.59000015  48.63999939
H     8.27000046  15.95000076  49.36000061
H     5.93999958  16.63999939  48.77999878
H     7.42999983  18.07999992  44.95999908
H    15.59999943  16.92000008  44.95999908
H     4.35999966  17.51000023  47.06999969
H     5.00999975  18.77000046  46.03000259
S    16.04999924  15.22999954  49.38000107
C    18.68999863  14.80000019  48.56999969
C    17.43999863  15.27999973  48.31999969
C    17.13999939  15.67000008  46.97999954
C    18.15999985  15.88999939  46.07999802
C    19.43000031  15.50000000  46.35000229
C    20.52999878  15.52000046  45.45000076
C    21.70000076  14.91000080  45.68000031
C    21.97999954  14.27999973  46.95000076
C    21.02999878  14.37999916  47.90999985
C    19.75000000  14.88000011  47.63000107
C    15.71000004  15.72999954  46.79000092
C    15.03999901  15.47999954  47.97000122
C    13.63000011  15.47999954  47.97999954
C    23.36999893  13.68999958  47.28000259
H    23.60770607  14.02855206  48.28845596
H    19.04000092  14.34999943  49.48999786
H    17.97000122  16.18000031  45.05000305
H    20.22000122  15.80000019  44.45000076
H    22.49000168  14.88000011  44.93000031
H    21.15999985  14.22999954  48.97999573
H    13.15999985  15.32999992  48.95000076
H    24.11000061  14.07999992  46.56999969
H    23.38999939  12.60000038  47.28000259
S    15.95999908  12.28999996  52.48000336
C    18.63000107  11.75000000  51.66999817
C    17.28000069  11.69000053  51.38000107
C    16.80999947  11.47999954  50.07999802
C    17.71000099  11.02000046  49.13000107
C    19.07999992  10.93000031  49.47000122
C    20.05000114  10.42000008  48.53000259
C    21.40000153  10.52000046  48.74000168
C    21.90999985  10.86999989  49.98000336
C    21.04000092  11.28999901  50.96000290
C    19.59000015  11.32999992  50.70000076
C    15.43000031  11.78999996  49.88999939
C    14.86999989  12.36999989  51.11999893
C    13.56999969  12.84999943  51.14999771
C    23.43000031  10.82999992  50.20999908
H    23.70563126  10.88653946  51.26305771
H    18.95000076  12.22000027  52.60000229
H    17.38000107  10.67000008  48.15999985
H    19.67000008   9.96999931  47.62000275
H    22.09000015  10.08999920  48.02000046
H    21.47000122  11.72000027  51.86000061
H    13.14000034  13.22000027  52.08000183
H    23.87000084   9.89000034  49.85000229
H    23.92000008  11.67000008  49.69999695
S    12.02000046  11.77000046  47.63000107
C     9.44999981  12.56000042  48.44999695
C    10.78999996  12.38000011  48.75000000
C    11.31000042  12.75000000  50.01999664
C    10.43000031  13.12999916  51.00999832
C     8.97999954  13.19000053  50.79000092
C     8.02999973  13.68000031  51.72000122
C     6.71000004  13.89999962  51.35000229
C     6.28000021  13.67000008  49.95999908
C     7.21000004  13.23999977  49.02999878
C     8.53999996  13.02000046  49.41999817
C    12.76000023  12.61000061  50.00999832
C    13.22000027  11.95000076  48.86000061
C    14.57999992  11.57999992  48.81000137
C     4.85000038  13.88000011  49.51000214
H     4.55444813  13.49509430  48.53399277
H     9.00000000  12.22000027  47.51999664
H    10.84000015  13.50000000  51.95000076
H     8.43999958  14.02999973  52.65999603
H     6.06999969  14.37999916  52.09000015
H     6.86999989  13.14000034  48.00000000
H    14.96999931  11.10999966  47.90999985
H     4.72000027  14.96999931  49.61999893
H     4.19000006  13.47000027  50.27999878
