96

S    12.25000000  16.40999985  44.27000046
C     9.55999947  16.31000137  44.99000168
C    10.85999966  16.07999992  45.27000046
C    11.23999977  15.88000107  46.65000153
C    10.25000000  15.85000038  47.65999603
C     8.89999962  16.03999901  47.30999756
C     7.86999989  16.07999992  48.29000092
C     6.61999989  16.54000092  47.98999786
C     6.25999975  16.95000076  46.60999680
C     7.25000000  16.95999908  45.65000153
C     8.56000042  16.39999962  45.93000031
C    12.71999931  15.81999969  46.77999878
C    13.40999985  16.10999870  45.54000092
C    14.81999969  16.23999977  45.47999954
C     4.86000013  17.42000008  46.25999832
H     4.41515875  16.75626755  45.51859665
H     9.32999992  16.68000031  43.99000168
H    10.59000015  15.73999977  48.68999863
H     8.18000031  15.86999989  49.31000137
H     5.86999989  16.64999962  48.75999832
H     7.07999992  17.21999931  44.61000061
H    15.34000015  16.53000069  44.56999969
H     4.33999968  17.42000008  47.22999954
H     5.01999950  18.46999931  45.98999786
S    15.93000031  15.17000008  49.02000046
C    18.53999901  14.61999989  48.29000092
C    17.34000015  15.14000034  47.94000244
C    16.97000122  15.59000015  46.60999680
C    17.92000008  15.51000023  45.61999893
C    19.22999954  15.01000023  45.91999817
C    20.32999992  15.13000011  45.00000000
C    21.63999939  14.80000019  45.35999680
C    21.90000153  14.37999916  46.72000122
C    20.85000038  14.27999973  47.54000092
C    19.50000000  14.53999996  47.27000427
C    15.52000046  15.85000038  46.56000137
C    14.84000015  15.53999996  47.75000000
C    13.45000076  15.59000015  47.91999817
C    23.28000069  14.06999969  47.23999786
H    23.40232468  14.40818977  48.26895905
H    18.73999977  14.39000034  49.33000183
H    17.59000015  15.72000027  44.61000061
H    20.23999977  15.48999977  43.97999573
H    22.43000031  15.13000011  44.68999863
H    21.12999916  14.13000011  48.57999802
H    13.10999966  15.46000004  48.95000076
H    23.97000122  14.63000107  46.60999680
H    23.32999992  12.97999954  47.08000183
S    11.96000004  16.84000015  50.90000153
C     9.23999977  17.10000038  51.44000244
C    10.47999954  16.72000122  51.86000061
C    10.86999989  16.35000038  53.18000031
C     9.82999992  16.26000023  54.06000137
C     8.52000046  16.59000015  53.70999908
C     7.50000000  16.57999992  54.72999954
C     6.19999981  17.05000114  54.45999908
C     5.86999989  17.38999939  53.09000015
C     6.88000011  17.50000000  52.16999817
C     8.21000004  17.04000092  52.37999725
C    12.25999928  16.14999962  53.37999725
C    12.96000004  16.32999992  52.18999863
C    14.37000084  16.23999977  52.15999985
C     4.44999981  17.50000000  52.63999939
H     4.19193649  17.06989479  51.67226410
H     9.15999985  17.64000130  50.50000000
H    10.01000023  16.10999870  55.12000275
H     7.86999989  16.34000015  55.72000122
H     5.42999983  17.09000015  55.21999741
H     6.63999987  17.97999954  51.23000336
H    14.96999931  16.51000023  51.30000305
H     3.74000025  17.11000061  53.39000320
H     4.15999985  18.55999947  52.68000031
S    15.34000015  15.34999943  55.91999817
C    17.95999908  14.85999966  55.26000214
C    16.75000000  15.46000004  54.92000198
C    16.46999931  15.85999966  53.55999756
C    17.45000076  16.03999901  52.64999771
C    18.72999954  15.53999996  52.95999908
C    19.72999954  15.36000061  51.86999893
C    20.95000076  15.01000023  52.32999802
C    21.19999886  14.55999947  53.72000122
C    20.20999908  14.47999954  54.65000153
C    18.96000099  14.96000099  54.31000137
C    15.03000069  15.92000008  53.34999847
C    14.32000065  15.73999977  54.55999756
C    12.96000004  15.88999939  54.59999847
C    22.56999969  14.06000042  54.15999985
H    23.05693054  14.68501663  54.90856934
H    18.27999878  14.46000004  56.22000122
H    17.29999924  16.31999969  51.60999680
H    19.55000114  15.80000019  50.89000320
H    21.77999878  15.07999992  51.63000107
H    20.38999939  14.06000042  55.63000107
H    12.39999962  15.65999985  55.50000000
H    23.13999939  13.96999931  53.22999954
H    22.42000198  13.07000065  54.61000061
