96

S    12.18000031  16.86000061  44.06000137
C     9.48999977  17.36999893  44.72999954
C    10.71000004  16.87000084  45.10000229
C    10.98999977  16.22999954  46.40999603
C    10.00000000  16.20000076  47.36999893
C     8.73999977  16.67000008  47.01000214
C     7.72000027  16.75000000  47.97999954
C     6.38999987  17.02000046  47.65999603
C     6.05999994  17.45000076  46.32999802
C     7.07999992  17.50000000  45.38000107
C     8.46000004  17.14999962  45.68000031
C    12.39999962  15.95000076  46.55000305
C    13.17999935  16.22999954  45.37000275
C    14.52000046  16.18999863  45.35999680
C     4.74000025  18.01000023  46.00000000
H     4.30598164  17.39514160  45.21153641
H     9.26999950  17.80999947  43.75999832
H    10.25000000  16.03000069  48.41999817
H     8.09000015  16.52000046  48.97999573
H     5.72000027  17.18000031  48.50000000
H     6.90000010  17.94999886  44.40000153
H    15.26999950  16.27000046  44.56999969
H     3.98999977  17.97000122  46.81000137
H     4.71000004  19.06999969  45.72000122
S    15.62999916  15.13000011  49.02000046
C    18.32999992  14.78999996  48.30999756
C    17.02999878  15.13000011  48.02999878
C    16.61000061  15.62000084  46.70000076
C    17.59000015  15.80000019  45.73999786
C    18.94000053  15.40999985  46.04000092
C    19.98999977  15.42000008  45.06000137
C    21.21999931  14.89999962  45.37000275
C    21.63999939  14.45000076  46.66999817
C    20.69000053  14.47999954  47.65999603
C    19.34000015  14.85999966  47.32999802
C    15.21999931  15.84000015  46.52000046
C    14.56999969  15.62999916  47.68000031
C    13.15999985  15.67000008  47.71999741
C    23.02999878  14.14000034  46.90000153
H    23.40648079  14.59462070  47.81634140
H    18.53999901  14.37000084  49.29000092
H    17.34000015  16.02000046  44.71000290
H    19.77000046  15.73999977  44.03999710
H    21.88999939  14.93000031  44.52000046
H    20.96999931  13.99000072  48.59000397
H    12.53000069  15.43000031  48.57999802
H    23.54999924  14.52000046  46.00999832
H    23.13999939  13.04999924  46.93000031
S    15.98999977  12.86999893  51.95000076
C    18.65999985  12.31999969  51.30000305
C    17.32999992  12.34000015  50.93999863
C    16.81999969  11.77000046  49.66999817
C    17.79000092  11.49000072  48.69999695
C    19.15999985  11.44999981  48.97999573
C    20.20999908  10.97000027  48.15999985
C    21.57999992  11.00999928  48.54000092
C    22.00000000  11.51999950  49.75999832
C    20.96999931  11.84000015  50.66999817
C    19.61000061  11.92000008  50.28999710
C    15.34999943  11.90999985  49.54000092
C    14.75000000  12.56999969  50.70000076
C    13.43000031  12.89999962  50.79999924
C    23.39999962  11.31999969  50.24000168
H    23.55125809  11.61564064  51.27818298
H    18.81999969  12.64999962  52.31999969
H    17.42000008  11.03000069  47.77999878
H    19.93999863  10.62000084  47.15999985
H    22.30999947  10.55999947  47.87000275
H    21.28000069  12.22000027  51.63999939
H    12.90999985  13.31999969  51.65999985
H    23.68999863  10.27999973  50.06000137
H    24.04000092  11.94000053  49.59999847
S    12.02999973  11.87999916  47.23999786
C     9.30999947  12.61000061  48.02999878
C    10.69000053  12.51000023  48.29999924
C    11.25000000  12.88000011  49.55999756
C    10.39000034  13.38000107  50.51000214
C     8.93999958  13.52000046  50.31999969
C     8.00000000  14.04000092  51.24000168
C     6.70000029  14.15999985  50.84999847
C     6.15000010  13.76999950  49.59999847
C     7.02000046  13.09999943  48.75000000
C     8.43000031  12.98999977  49.09999847
C    12.67000008  12.71000004  49.66999817
C    13.21000004  12.09000015  48.48999786
C    14.53999996  11.69999981  48.44999695
C     4.72000027  14.14999962  49.15999985
H     4.52203894  13.95203876  48.10656738
H     8.80999947  12.28000069  47.12999725
H    10.78999996  13.76000023  51.45000076
H     8.27000046  14.52000046  52.18000031
H     6.12999964  14.80000019  51.52000046
H     6.81999969  12.94999981  47.69000244
H    14.88000011  11.26000023  47.51999664
H     4.69999981  15.22999954  49.34000015
H     3.91000009  13.67000008  49.72000122
