96

S    12.27000046  16.27000046  44.20000076
C     9.72999954  16.86000061  44.97000122
C    10.98999977  16.44000053  45.33000183
C    11.26999950  15.82999992  46.55000305
C    10.24000072  15.85000038  47.50000000
C     8.96000004  16.29999924  47.23999786
C     7.90999985  16.28000069  48.18000031
C     6.58999968  16.56999969  47.81999969
C     6.17000008  16.90000153  46.45999908
C     7.20000029  17.02999878  45.56000137
C     8.60999966  16.77999878  45.89000320
C    12.69999981  15.50000000  46.65999985
C    13.43999958  15.80999947  45.44000244
C    14.81999969  15.81999969  45.34000015
C     4.81999969  17.29999924  46.11000061
H     4.47249269  16.88298988  45.16477966
H     9.59000015  17.01000023  43.89999771
H    10.43000031  15.52999973  48.52000427
H     8.19000053  15.90999985  49.15999985
H     5.91000032  16.70999908  48.64999771
H     6.94000006  17.35999870  44.55999756
H    15.26000023  16.31000137  44.47999954
H     4.13000011  16.95000076  46.90000153
H     4.76999998  18.38999939  46.11999893
S    15.88000107  14.70000076  49.09999847
C    18.59000015  14.37000084  48.26000214
C    17.28000069  14.73999977  48.02000046
C    16.95999908  15.27999973  46.66999817
C    17.94999886  15.31000042  45.73999786
C    19.30999947  15.03999901  46.00000000
C    20.20999908  15.08999920  44.98000336
C    21.50000000  14.68999958  45.20000076
C    21.81999969  14.27999973  46.52000046
C    20.93000031  14.21000004  47.55000305
C    19.60000038  14.60000038  47.28000259
C    15.52999973  15.47999954  46.45000076
C    14.86999989  15.14000034  47.64999771
C    13.48999977  15.19999981  47.80000305
C    23.22000122  13.94999981  46.91999817
H    23.51626587  14.29684639  47.90996170
H    18.88000107  14.04999924  49.26000214
H    17.75000000  15.54999924  44.69999695
H    19.88999939  15.44000053  44.00000000
H    22.23999977  14.81999969  44.41999817
H    21.07999992  13.78000069  48.54000092
H    12.97999954  15.03999901  48.74000168
H    23.88000107  14.34000015  46.13999939
H    23.21000099  12.84999943  46.93999863
S    11.97000027  16.39000130  50.93000031
C     9.28999996  16.55999947  51.62000275
C    10.59999943  16.39999962  52.02000046
C    10.88999939  16.10000038  53.40000153
C     9.88000011  15.95999908  54.34000015
C     8.51000023  16.10000038  53.93000031
C     7.42000008  16.21000099  54.82999802
C     6.19000006  16.56999969  54.43000031
C     5.92000008  16.84999847  53.08000183
C     6.84999990  16.69000053  52.11999893
C     8.26000023  16.36999893  52.51999664
C    12.36999989  15.95999908  53.53000259
C    13.04999924  16.02000046  52.27000427
C    14.47000027  16.10000038  52.23999786
C     4.65999985  17.57999992  52.65999603
H     4.18982077  17.05011559  51.83159256
H     9.13999939  16.95999908  50.61999893
H    10.08999920  15.82999992  55.40000153
H     7.65999985  16.29999924  55.89000320
H     5.42999983  16.86000061  55.13999939
H     6.81999969  17.00000000  51.07999802
H    15.00000000  16.42000008  51.35000229
H     3.86000013  17.68000031  53.40000153
H     4.86000013  18.57999992  52.25999832
S    15.62999916  15.21999931  55.93000031
C    18.26000023  14.88000011  55.25000000
C    16.97999954  15.31999969  54.89999771
C    16.63999939  15.64000034  53.56999969
C    17.69000053  15.64000034  52.64999771
C    18.97999954  15.18000031  52.97000122
C    20.00000000  15.14999962  51.98999786
C    21.18999863  14.50000000  52.25000000
C    21.54999924  14.26000023  53.56999969
C    20.62000084  14.34999943  54.58000183
C    19.29000092  14.80999947  54.27000046
C    15.18000031  15.80000019  53.41999817
C    14.51000023  15.62000084  54.59000015
C    13.09999943  15.73999977  54.71000290
C    23.00000000  13.89000034  53.95999908
H    23.22884941  14.55574226  54.79217529
H    18.47999954  14.40000057  56.19999695
H    17.51000023  16.04999924  51.65999985
H    19.65999985  15.46000004  51.00999832
H    21.80999947  14.25000000  51.38999939
H    20.75000000  14.09000015  55.63000107
H    12.63000011  15.36000061  55.61000061
H    23.78999901  13.96000004  53.20000076
H    23.02999878  12.84999943  54.29999924
