96

S    12.48999977  16.59000015  44.18000031
C     9.96000004  16.97999954  44.89999771
C    11.11999989  16.31000137  45.13999939
C    11.43000031  15.65999985  46.36000061
C    10.52000046  15.67000008  47.37999725
C     9.23999977  16.27000046  47.18999863
C     8.23000050  16.31000137  48.15999985
C     6.93000031  16.76000023  47.81999969
C     6.65000010  17.30999947  46.59000015
C     7.65999985  17.31999969  45.68999863
C     8.96000004  16.93000031  45.93999863
C    12.84999943  15.38000011  46.52000046
C    13.59000015  15.88000107  45.41999817
C    14.96000099  16.00000000  45.43000031
C     5.23000002  17.71999931  46.23000336
H     4.84616947  17.08269691  45.43337250
H     9.82999992  17.43999863  43.92000198
H    10.82999992  15.29999924  48.34999847
H     8.51000023  15.90999985  49.13000107
H     6.17000008  16.64999962  48.57999802
H     7.55000019  17.61000061  44.64000320
H    15.51000023  16.42000008  44.59000015
H     4.56999969  17.72999954  47.11000061
H     5.23999977  18.75000000  45.83000183
S    15.98000050  14.75000000  49.03999710
C    18.70000076  14.60000038  48.40999985
C    17.46000099  15.01000023  48.06999969
C    17.12000084  15.60999966  46.79000092
C    18.11000061  15.71000004  45.81999969
C    19.37000084  15.26000023  46.11000061
C    20.38000107  15.27999973  45.13999939
C    21.64999962  14.84000015  45.38000107
C    22.03000069  14.44000053  46.72000122
C    21.02999878  14.27000046  47.68000031
C    19.64999962  14.68999958  47.36999893
C    15.65000057  15.53999996  46.56999969
C    14.92000008  15.18000031  47.75000000
C    13.55000019  15.08999920  47.74000168
C    23.43000031  14.11999893  47.09000015
H    23.68710899  14.46744347  48.09063721
H    18.81999969  13.86000061  49.20000076
H    17.86999893  15.76000023  44.75999832
H    20.17000008  15.62000084  44.13000107
H    22.42000198  14.84000015  44.61000061
H    21.31999969  13.71999931  48.56999969
H    12.96000004  15.03999901  48.64999771
H    24.20000076  14.50000000  46.39999771
H    23.51000023  13.02000046  47.02000046
S    16.28000069  12.58999920  52.39999771
C    18.84000015  11.87000084  51.79000092
C    17.53000069  11.90000057  51.44000244
C    17.06999969  11.50000000  50.11000061
C    17.97000122  11.00000000  49.15999985
C    19.31999969  10.92000008  49.54000092
C    20.26000023  10.38000011  48.66000366
C    21.59000015  10.13000011  48.95999908
C    22.04999924  10.60999966  50.18000031
C    21.17000198  11.09000015  51.11000061
C    19.78000069  11.36000061  50.84000015
C    15.65000057  11.73999977  49.97000122
C    15.06000042  12.35000038  51.16000366
C    13.75000000  12.64999962  51.20999908
C    23.45999908  10.29999924  50.59000015
H    23.68406487  10.58008099  51.61929703
H    19.10000038  12.27000046  52.77000046
H    17.53000069  10.65999985  48.22000122
H    19.84000015   9.98999977  47.74000168
H    22.21999931   9.52999973  48.31999969
H    21.45000076  11.14999962  52.15999985
H    13.28999996  13.12000084  52.06999969
H    23.64999962   9.22000027  50.48999786
H    24.15999985  10.80000019  49.91000366
S    12.28999996  11.76000023  47.63999939
C     9.73999977  12.20999908  48.36000061
C    11.05999947  12.23999977  48.72000122
C    11.51000023  12.57999992  49.98000336
C    10.62999916  13.12999916  50.83000183
C     9.25000000  13.15999985  50.54999924
C     8.28999996  13.83999920  51.42000198
C     6.96000004  13.89999962  51.10000229
C     6.51000023  13.40000057  49.89999771
C     7.42000008  12.76000023  49.03999710
C     8.80999947  12.63000011  49.38000107
C    12.97999954  12.35999966  50.10000229
C    13.52000046  11.89000034  48.88000107
C    14.86999989  11.47999954  48.83999634
C     5.03999996  13.45999908  49.58000183
H     4.92044401  13.33341122  48.50399780
H     9.35999966  11.97000027  47.36999893
H    11.00999928  13.67000008  51.70000076
H     8.71000004  14.37000084  52.28000259
H     6.40999985  14.51000023  51.81999969
H     7.09999990  12.53000069  48.02000046
H    15.25000000  10.90999985  47.98999786
H     4.67000008  14.40999985  49.98000336
H     4.53000021  12.63000011  50.08999634
