96

S    12.23000050  16.63999939  44.65000153
C     9.47000027  16.97999954  45.33000183
C    10.70000076  16.42000008  45.61999893
C    11.03999996  15.92000008  46.90999985
C     9.92000008  15.72000027  47.77000046
C     8.64999962  16.26000023  47.51999664
C     7.49000025  16.07999992  48.37999725
C     6.25999975  16.52000046  48.01000214
C     6.05999994  17.36999893  46.90000153
C     7.20000029  17.60000038  46.04000092
C     8.48999977  16.97000122  46.31000137
C    12.50000000  15.80999947  47.11999893
C    13.25000000  16.28999901  46.00000000
C    14.68999958  16.29999924  45.96000290
C     4.69999981  17.81999969  46.47999573
H     4.40464497  17.18709564  45.64315796
H     9.19999981  17.43999863  44.38000107
H    10.03000069  15.26000023  48.74000168
H     7.65999985  15.44999981  49.25000000
H     5.38999987  16.44000053  48.66000366
H     7.03000021  18.29000092  45.21999741
H    15.25000000  16.54999924  45.06999969
H     4.07000017  17.53000069  47.32999802
H     4.69000006  18.89999962  46.32999802
S    15.70000076  15.08999920  49.56999969
C    18.45000076  14.68999958  48.66000366
C    17.17000008  15.21999931  48.50000000
C    16.84000015  15.84000015  47.22000122
C    17.79000092  16.00000000  46.26999664
C    19.04000092  15.42000008  46.43000031
C    20.06000137  15.50000000  45.47000122
C    21.27000046  14.78000069  45.56000137
C    21.57999992  14.07999992  46.72999954
C    20.63999939  14.09999943  47.70999908
C    19.38999939  14.72000027  47.58999634
C    15.42000008  15.88999939  47.09999847
C    14.68000031  15.48999977  48.23999786
C    13.21000004  15.44999981  48.23999786
C    23.05999947  13.60999966  47.09000015
H    23.38872528  14.21742630  47.93325043
H    18.63999939  14.09000015  49.54999924
H    17.61999893  16.46999931  45.30000305
H    19.77000046  15.93000031  44.52000046
H    21.94000053  14.70999908  44.71000290
H    20.71000099  13.56999969  48.66000366
H    12.63000011  15.08999920  49.08000183
H    23.75000000  13.80000019  46.25999832
H    23.02000046  12.55000019  47.36000061
S    11.82999992  16.82999992  50.84000015
C     9.15999985  16.95999908  51.60999680
C    10.43000031  16.73999977  52.00000000
C    10.80000019  16.40999985  53.36000061
C     9.80000019  16.51000023  54.33000183
C     8.43999958  16.69999886  53.97999573
C     7.51999950  16.93000031  55.00000000
C     6.25000000  17.35999870  54.61999893
C     5.96000004  17.54999924  53.23999786
C     6.84999990  17.29999924  52.22000122
C     8.14000034  16.93000031  52.56999969
C    12.25999928  16.27000046  53.47999954
C    12.92000008  16.45000076  52.22999954
C    14.29999924  16.51000023  52.21000290
C     4.55000019  18.01000023  52.77999878
H     4.00969076  17.19953728  52.29080200
H     9.01000023  17.46000099  50.65999985
H    10.00000000  16.44000053  55.40000153
H     7.79999971  17.01000023  56.04999924
H     5.56999969  17.71000099  55.40000153
H     6.60000038  17.59000015  51.19999695
H    14.80999947  16.92000008  51.33999634
H     4.00000000  18.25000000  53.68999863
H     4.81999969  18.92000008  52.21000290
S    15.38000011  15.47000027  55.90000153
C    17.94000053  14.78999996  55.04000092
C    16.79000092  15.43000031  54.79999924
C    16.54000092  16.06999969  53.50000000
C    17.54999924  16.20000076  52.61000061
C    18.81999969  15.57999992  52.88999939
C    19.96999931  15.81999969  52.06999969
C    21.21000099  15.34999943  52.45999908
C    21.34000015  14.55999947  53.54000092
C    20.27000046  14.32999992  54.36000061
C    18.96000099  14.78000069  54.06000137
C    15.03000069  16.21999931  53.33000183
C    14.34999943  16.07999992  54.54999924
C    12.97000027  16.10000038  54.65000153
C    22.70999908  14.11000061  54.05000305
H    23.03396797  14.79240131  54.83579636
H    18.09000015  14.32000065  56.00999832
H    17.36999893  16.62999916  51.63000107
H    19.71999931  16.46999931  51.24000168
H    22.06999969  15.62999916  51.86000061
H    20.38000107  14.01999950  55.40000153
H    12.46999931  15.98999977  55.61000061
H    23.42000008  14.25000000  53.22000122
H    22.72000122  13.05999947  54.36000061
