96

S    12.53000069  16.28999901  43.97999573
C     9.85000038  16.59000015  44.61000061
C    11.10000038  16.23999977  45.00000000
C    11.35000038  15.71000004  46.30000305
C    10.36000061  15.52000046  47.21000290
C     9.03999996  15.86999989  46.81000137
C     8.00000000  15.80000019  47.75000000
C     6.77999973  16.21999931  47.38999939
C     6.51000023  16.84999847  46.16000366
C     7.53000021  17.01000023  45.22999573
C     8.80999947  16.44000053  45.52000046
C    12.81999969  15.57000065  46.52000046
C    13.56999969  15.84000015  45.34999847
C    14.96999931  16.06999969  45.34999847
C     5.07000017  17.20000076  45.79999924
H     4.61964655  16.58258057  45.02277756
H     9.72999954  16.97000122  43.60000229
H    10.47000027  14.85999966  48.06999969
H     8.23000050  15.50000000  48.76999664
H     5.98000002  16.04999924  48.09999847
H     7.30000019  17.53000069  44.31000137
H    15.53999996  16.21999931  44.43999863
H     4.40000010  17.13000107  46.66999817
H     4.88000011  18.23999977  45.50000000
S    15.98999977  14.93999958  48.94000244
C    18.64999962  14.37000084  48.20999908
C    17.39999962  14.93999958  47.93000031
C    17.14999962  15.57000065  46.65999985
C    18.18000031  15.57000065  45.72000122
C    19.44000053  14.96000099  45.96000290
C    20.50000000  14.92000008  44.94999695
C    21.70000076  14.37000084  45.40000153
C    22.00000000  14.09000015  46.79999924
C    20.95000076  14.01000023  47.60000229
C    19.68000031  14.39000034  47.21000290
C    15.70000076  15.78999996  46.52999878
C    14.96999931  15.46000004  47.68000031
C    13.57999992  15.44999981  47.67000198
C    23.36000061  13.57999992  47.22999954
H    23.70928764  13.97205639  48.18519211
H    18.96999931  13.86999989  49.12000275
H    18.05999947  15.93000031  44.71000290
H    20.38999939  15.36999893  43.96999741
H    22.52000046  14.17000008  44.69999695
H    21.15999985  13.66000080  48.61000061
H    13.05999947  15.27999973  48.61000061
H    24.09000015  13.60000038  46.40999603
H    23.12000084  12.51999950  47.36000061
S    15.78999996  12.55000019  52.09000015
C    18.40999985  11.82000065  51.26999664
C    17.04000092  11.90000057  51.03000259
C    16.54000092  11.59000015  49.73999786
C    17.36999893  11.25000000  48.69999695
C    18.77000046  11.09000015  48.95000076
C    19.70000076  10.72000027  47.95000076
C    21.02999878  10.48999977  48.11999893
C    21.55999947  10.81999969  49.43000031
C    20.71000099  11.31999969  50.40999985
C    19.31999969  11.47999954  50.20000076
C    15.06999969  11.80999947  49.69999695
C    14.57999992  12.38999939  50.90999985
C    13.28999996  12.86000061  50.93000031
C    22.95999908  10.34000015  49.86000061
H    23.22354317  10.62491226  50.87856293
H    18.81000137  12.06999969  52.25000000
H    16.97000122  11.07999992  47.70999908
H    19.20999908  10.47000027  47.02000046
H    21.60000038   9.98000050  47.35000229
H    21.04999924  11.54000092  51.42000198
H    12.92000008  12.97999954  51.93999863
H    23.12000084   9.26999950  49.71000290
H    23.64999962  10.80999947  49.15000153
S    11.75000000  11.87000084  47.37999725
C     9.15000057  12.34000015  48.27000046
C    10.51000023  12.27000046  48.53000259
C    10.98999977  12.61999989  49.80999756
C    10.13000011  12.97999954  50.86000061
C     8.78999996  13.07000065  50.63999939
C     7.86000013  13.59000015  51.56000137
C     6.51000023  13.88000011  51.25000000
C     6.03999996  13.50000000  50.01999664
C     6.90000010  12.96000004  49.09000015
C     8.30000019  12.76999950  49.31000137
C    12.43999958  12.68000031  49.82999802
C    12.98999977  12.27000046  48.60000229
C    14.32999992  11.82999992  48.55999756
C     4.61999989  13.93000031  49.59000015
H     4.34231091  13.46718407  48.64300919
H     8.71000004  11.80999947  47.42000198
H    10.40999985  13.20000076  51.88999939
H     8.23999977  14.04999924  52.47000122
H     5.82000017  14.42000008  51.88999939
H     6.51999998  13.04999924  48.08000183
H    14.70999908  11.31999969  47.68000031
H     4.59999990  15.01999950  49.52000046
H     3.96000004  13.63000011  50.41999817
