96

S    12.10000038  16.75000000  44.06999969
C     9.50000000  16.94000053  44.78000259
C    10.70000076  16.40999985  45.02999878
C    10.98999977  15.80000019  46.30000305
C     9.96000004  15.65999985  47.22000122
C     8.67999935  16.17000008  47.04000092
C     7.62000036  16.06999969  47.98999786
C     6.43000031  16.51000023  47.70000076
C     6.14000034  17.09000015  46.45000076
C     7.16000032  17.36999893  45.54999924
C     8.45000076  16.77999878  45.77000046
C    12.43999958  15.64000034  46.43000031
C    13.15999985  16.13000107  45.34999847
C    14.55000019  16.13999939  45.35999680
C     4.61000013  17.35000038  46.25999832
H     4.16075659  16.78142738  45.44574738
H     9.30000019  17.43000031  43.82999802
H    10.18000031  15.26000023  48.20000076
H     7.82999992  15.51000023  48.89999771
H     5.65000010  16.34000015  48.43000031
H     7.03000021  17.92000008  44.61999893
H    15.05000019  16.34000015  44.40999985
H     4.03999996  17.15999985  47.18000031
H     4.59999990  18.44000053  46.12999725
S    15.59999943  14.86999989  48.95000076
C    18.27999878  14.70000076  48.36000061
C    17.00000000  15.11999989  47.98999786
C    16.69999886  15.59999943  46.70999908
C    17.76000023  15.67000008  45.83000183
C    19.02000046  15.29999924  46.18000031
C    20.09000015  15.17000008  45.18000031
C    21.38000107  14.75000000  45.54999924
C    21.60000038  14.21000004  46.81999969
C    20.59000015  14.19999981  47.70999908
C    19.30999947  14.73999977  47.43000031
C    15.24000072  15.71000004  46.46999741
C    14.53999996  15.34999943  47.63000107
C    13.12000084  15.26999950  47.63000107
C    22.98000145  13.68000031  47.19999695
H    23.37554932  14.12328815  48.11385727
H    18.39999962  14.28999996  49.36000061
H    17.46000099  15.85000038  44.79999924
H    19.88000107  15.46000004  44.15999985
H    22.14999962  14.75000000  44.79000092
H    20.79000092  13.96999931  48.75999832
H    12.53999901  14.98000050  48.50000000
H    23.64999962  13.86000061  46.35000229
H    22.98999977  12.60000038  47.32999802
S    11.52999973  16.44000053  50.83000183
C     8.90999985  16.87999916  51.56999969
C    10.19000053  16.55999947  51.90000153
C    10.59000015  16.26000023  53.23999786
C     9.63999939  16.25000000  54.25000000
C     8.34999943  16.65999985  53.97999573
C     7.36999989  16.77999878  54.97000122
C     6.06999969  17.09000015  54.61000061
C     5.69000006  17.43000031  53.27000046
C     6.67000008  17.35999870  52.32999802
C     8.00000000  16.90999985  52.62000275
C    12.03999996  16.09000015  53.34999847
C    12.68000031  16.18000031  52.08000183
C    14.09000015  16.23999977  51.90000153
C     4.23000002  17.63000107  52.88000107
H     3.96455836  16.95941162  52.06271744
H     8.64999962  17.28999901  50.59999847
H     9.96000004  16.13999939  55.27999878
H     7.60999966  16.55999947  56.00999832
H     5.26999998  17.29999924  55.31999969
H     6.51999998  17.50000000  51.25999832
H    14.55000019  16.31999969  50.91999817
H     3.61000013  17.56999969  53.77999878
H     4.15999985  18.70000076  52.64999771
S    15.31999969  15.22999954  55.68999863
C    17.97999954  15.11999989  54.95999908
C    16.69999886  15.21999931  54.54999924
C    16.32999992  15.67999935  53.18000031
C    17.29999924  15.77999973  52.21000290
C    18.60999870  15.57000065  52.60000229
C    19.65999985  15.38000011  51.65999985
C    20.92000008  15.01000023  52.02000046
C    21.22999954  14.78000069  53.34999847
C    20.32999992  15.06999969  54.36999893
C    18.97999954  15.26999950  53.95999908
C    14.88000011  16.00000000  53.08000183
C    14.22999954  15.80000019  54.33000183
C    12.81000042  15.92000008  54.45999908
C    22.57999802  14.11000061  53.73000336
H    22.92775536  14.59685707  54.64112091
H    18.17000008  14.84000015  55.98999786
H    17.11000061  16.03999901  51.17000198
H    19.47000122  15.46000004  50.59999847
H    21.63999939  14.73000050  51.25999832
H    20.58000183  14.75000000  55.38000107
H    12.23000050  15.80999947  55.37000275
H    23.22000122  14.22999954  52.84999847
H    22.43000031  13.02999973  53.79000092
