96

S    12.20999908  16.76000023  44.41999817
C     9.44000053  16.80999947  45.07999802
C    10.71000004  16.61000061  45.45000076
C    11.07999992  16.28000069  46.77999878
C    10.10000038  16.22999954  47.65999603
C     8.73999977  16.47999954  47.32999802
C     7.67000008  16.53000069  48.29000092
C     6.38000011  16.86000061  47.97999954
C     6.02999973  17.23999977  46.62000275
C     7.07000017  17.17000008  45.72000122
C     8.36999989  16.82999992  45.98999786
C    12.50000000  16.14999962  46.97000122
C    13.27999973  16.38000107  45.73999786
C    14.61999989  16.20000076  45.59000015
C     4.65999985  17.69000053  46.24000168
H     4.27590704  16.98703766  45.50080109
H     9.22999954  16.98999977  44.02999878
H    10.42000008  16.28000069  48.69999695
H     7.92999983  16.38000107  49.33000183
H     5.69999981  17.01000023  48.81000137
H     7.03999996  17.61999893  44.72999954
H    15.21000004  16.13000107  44.68000031
H     4.07000017  17.61000061  47.15999985
H     4.67000008  18.72999954  45.90000153
S    15.75000000  15.27999973  49.43999863
C    18.36000061  14.75999928  48.52000427
C    17.07999992  15.18000031  48.26000214
C    16.77000046  15.65999985  46.97000122
C    17.75000000  15.86999989  45.97999954
C    19.04999924  15.47999954  46.25999832
C    20.03000069  15.54999924  45.18000031
C    21.35000038  15.27999973  45.51000214
C    21.73000145  14.91000080  46.86999893
C    20.72000122  14.70999908  47.78999710
C    19.37000084  14.96000099  47.56000137
C    15.31999969  15.93999958  46.77000046
C    14.67000008  15.77999973  48.04999924
C    13.27000046  15.88000107  48.15000153
C    23.19000053  14.73999977  47.19999695
H    23.28286552  14.76143074  48.28582382
H    18.63000107  14.14000034  49.36999893
H    17.35000038  16.21999931  45.04000092
H    19.70000076  15.85999966  44.19000244
H    22.11000061  15.39000034  44.73999786
H    20.97999954  14.51000023  48.82999802
H    12.76000023  15.59000015  49.06999969
H    23.68000031  15.54999924  46.63999939
H    23.52000046  13.81000042  46.72000122
S    11.54999924  16.52000046  51.12999725
C     9.06999969  17.18000031  52.04999924
C    10.21000004  16.55999947  52.32999802
C    10.55999947  16.05999947  53.63999939
C     9.61000061  15.90000057  54.56999969
C     8.27999973  16.42000008  54.31000137
C     7.21000004  16.10999870  55.17000198
C     5.95000029  16.48999977  54.85000229
C     5.71000004  17.23999977  53.74000168
C     6.71000004  17.56999969  52.87000275
C     8.07999992  17.09000015  53.04999924
C    12.02999973  15.86999989  53.73000336
C    12.69999981  16.17000008  52.50000000
C    14.11999893  16.25000000  52.48000336
C     4.30999994  17.60000038  53.30999756
H     3.96046090  17.12666702  52.39245987
H     8.88000011  17.84000015  51.19999695
H     9.85999966  15.19000053  55.35999680
H     7.40999985  15.46000004  56.02000427
H     5.10999966  16.29999924  55.52000046
H     6.51000023  18.20000076  52.01000214
H    14.48999977  16.46999931  51.47999573
H     3.72000003  17.13999939  54.10999680
H     4.05999994  18.67000008  53.29999924
S    15.21000004  15.03000069  56.03000259
C    17.93000031  14.98999977  55.52000046
C    16.61000061  15.21999931  55.01999664
C    16.31000137  15.71000004  53.74000168
C    17.38999939  15.80999947  52.84000015
C    18.68999863  15.39000034  53.20000076
C    19.69000053  15.29000092  52.22000122
C    20.93000031  14.80999947  52.63000107
C    21.21000099  14.42000008  53.93000031
C    20.23999977  14.51000023  54.89999771
C    19.00000000  15.06999969  54.58000183
C    14.84000015  15.82999992  53.53000259
C    14.15999985  15.48999977  54.72000122
C    12.77999973  15.54999924  54.84000397
C    22.56000137  13.94999981  54.29000092
H    22.82633018  14.40070915  55.24605179
H    18.15000153  14.42000008  56.42000198
H    17.12000084  16.02000046  51.81000137
H    19.63999939  15.67000008  51.20999908
H    21.73000145  14.93000031  51.90999985
H    20.34000015  14.17000008  55.93000031
H    12.28000069  15.36000061  55.77999878
H    23.26999855  14.47999954  53.63999939
H    22.70000076  12.86999893  54.19000244
