96

S    12.46000099  16.46000099  44.43999863
C     9.77999973  16.87000084  45.04000092
C    10.97000027  16.26000023  45.35999680
C    11.30000019  15.72999954  46.68000031
C    10.27999973  15.75000000  47.63999939
C     9.02999973  16.22999954  47.28000259
C     7.95000029  16.02000046  48.16999817
C     6.70000029  16.47999954  47.88999939
C     6.43000031  17.19000053  46.66999817
C     7.46000004  17.27000046  45.73999786
C     8.73999977  16.81999969  45.97999954
C    12.74000072  15.65999985  46.90999985
C    13.45999908  15.95999908  45.77000046
C    14.82999992  15.88999939  45.72000122
C     5.03000021  17.51000023  46.30000305
H     4.72299385  16.96576118  45.40689087
H     9.52999973  17.28000069  44.06999969
H    10.47999954  15.17000008  48.54999924
H     8.17000008  15.52000046  49.10999680
H     5.88000011  16.13000107  48.52000427
H     7.26999998  17.67000008  44.73999786
H    15.25000000  16.06999969  44.72999954
H     4.36999989  17.35000038  47.16999817
H     4.96000004  18.57999992  46.05999756
S    15.95000076  14.75999928  49.31999969
C    18.67000008  14.82999992  48.64999771
C    17.36999893  15.06000042  48.34999847
C    16.98999977  15.57999992  47.04000092
C    17.97000122  15.86999989  46.11999893
C    19.30999947  15.43000031  46.33999634
C    20.29999924  15.50000000  45.31999969
C    21.61999893  15.21999931  45.59000015
C    21.94000053  14.56999969  46.86000061
C    20.96999931  14.44000053  47.80000305
C    19.67000008  14.92000008  47.62000275
C    15.57000065  15.65000057  46.84999847
C    14.85000038  15.29000092  47.98999786
C    13.43000031  15.31999969  48.02999878
C    23.31999969  14.15999985  47.16999817
H    23.61579895  14.47692585  48.17007828
H    18.93000031  14.35999966  49.59000015
H    17.77000046  16.42000008  45.20999908
H    20.10999870  16.07999992  44.40999985
H    22.39000130  15.44999981  44.86999893
H    21.18000031  13.89999962  48.72000122
H    12.98999977  15.11999989  49.00000000
H    24.09000015  14.60999966  46.52999878
H    23.34000015  13.05999947  47.11000061
S    15.86999989  12.22000027  52.56999969
C    18.55999947  11.65999985  51.81000137
C    17.25000000  11.75000000  51.50000000
C    16.73999977  11.47999954  50.17000198
C    17.64999962  11.18000031  49.12000275
C    19.00000000  11.21000099  49.36999893
C    19.97999954  10.82999992  48.37999725
C    21.30000114  10.70000076  48.72000122
C    21.75000000  10.90000057  50.04000092
C    20.86000061  11.23000050  51.06999969
C    19.51000023  11.38000011  50.76000214
C    15.32999992  11.51999950  50.13999939
C    14.70999908  12.00000000  51.29000092
C    13.35999966  12.18999958  51.36000061
C    23.26999855  10.67999935  50.31000137
H    23.62312317  10.92012405  51.31287003
H    18.88000107  11.82999992  52.83000183
H    17.23999977  10.80999947  48.18000031
H    19.67000008  10.54999924  47.37999725
H    21.97999954  10.44999981  47.90999985
H    21.18000031  11.25000000  52.11000061
H    12.84000015  12.53000069  52.25999832
H    23.35000038   9.63999939  49.99000168
H    23.84000015  11.25000000  49.56999969
S    12.10000038  11.44999981  47.63000107
C     9.36999989  12.17000008  48.29999924
C    10.75000000  12.07999992  48.66000366
C    11.18999958  12.28999996  50.00999832
C    10.21999931  12.51000023  50.97999954
C     8.89000034  12.75000000  50.61000061
C     7.96999979  13.17000008  51.53999710
C     6.65999985  13.48000050  51.23000336
C     6.19999981  13.35000038  49.95999908
C     7.03999996  12.86000061  49.01000214
C     8.38999939  12.57999992  49.29000092
C    12.64000034  12.11999989  50.18000031
C    13.22999954  11.61000061  48.96999741
C    14.53999996  11.32999992  48.90999603
C     4.72000027  13.63999939  49.66999817
H     4.42462063  13.36571884  48.65726852
H     9.13999939  11.95000076  47.25999832
H    10.46000004  12.65999985  52.02999878
H     8.27999973  13.32999992  52.56999969
H     6.10000038  13.96999931  52.02000046
H     6.74000025  12.64000034  47.98999786
H    14.91000080  10.93000031  47.97000122
H     4.50000000  14.70999908  49.78000259
H     4.11999989  13.07000065  50.38999939
