96

S    12.10000038  16.54999924  44.01000214
C     9.55999947  17.15999985  44.66999817
C    10.76000023  16.62999916  45.06999969
C    11.03000069  16.20000076  46.44000244
C     9.96999931  16.15999985  47.31999969
C     8.76000023  16.72000122  46.97000122
C     7.68000031  16.68000031  47.88000107
C     6.39999962  17.02999878  47.37999725
C     6.14000034  17.47999954  46.04999924
C     7.20000029  17.52000046  45.18000031
C     8.48999977  17.13999939  45.65000153
C    12.44999981  15.97000027  46.60999680
C    13.22999954  16.18999863  45.40000153
C    14.60000038  16.18999863  45.34999847
C     4.67000008  17.77000046  45.63999939
H     4.18202925  17.14260864  44.89410019
H     9.36999989  17.68000031  43.73000336
H     9.96999931  15.51000023  48.20000076
H     7.82999992  16.20000076  48.83999634
H     5.51000023  16.77999878  47.95000076
H     7.02000046  17.47999954  44.09999847
H    15.05000019  16.56999969  44.43999863
H     3.98000002  17.86999893  46.49000168
H     4.65999985  18.78000069  45.20000076
S    15.59999943  14.93000031  49.06000137
C    18.22999954  14.52000046  48.31999969
C    16.98999977  15.01000023  48.02000046
C    16.72000122  15.65999985  46.73999786
C    17.78000069  15.75000000  45.83000183
C    19.10000038  15.44000053  46.11999893
C    20.29000092  15.52000046  45.31999969
C    21.52000046  15.21000004  45.77000046
C    21.64999962  14.50000000  46.93000031
C    20.55000114  14.23999977  47.75000000
C    19.29999924  14.75000000  47.36000061
C    15.26000023  15.80999947  46.53999710
C    14.55999947  15.51000023  47.72999573
C    13.17000008  15.55999947  47.77999878
C    22.96999931  14.04999924  47.25999832
H    23.41539955  14.74991608  47.96698761
H    18.38999939  13.83999920  49.15000153
H    17.64999962  16.10000038  44.80999756
H    20.17999840  15.88999939  44.31000137
H    22.39000130  15.29000092  45.11000061
H    20.71000099  13.67000008  48.67000198
H    12.64000034  15.27999973  48.68000031
H    23.55999947  13.94000053  46.33999634
H    22.95999908  13.05999947  47.72999573
S    12.02000046  16.45000076  50.89000320
C     9.35999966  16.88999939  51.65000153
C    10.59999943  16.36000061  51.95000076
C    10.95999908  15.97000027  53.29000092
C     9.92000008  15.95000076  54.22000122
C     8.59000015  16.51000023  53.90999603
C     7.50000000  16.46000099  54.86000061
C     6.28999996  17.02000046  54.56999969
C     5.97000027  17.42000008  53.27000046
C     6.94999981  17.50000000  52.28000259
C     8.30000019  17.06999969  52.60000229
C    12.42000008  15.97000027  53.48999786
C    13.12999916  16.21999931  52.25999832
C    14.46000004  16.29999924  52.19999695
C     4.55999994  17.79000092  52.88999939
H     4.05626011  17.05661392  52.26032639
H     9.19000053  17.25000000  50.63999939
H    10.15999985  15.57999992  55.20999908
H     7.55999994  15.80000019  55.72000122
H     5.56999969  16.95999908  55.38000107
H     6.83000040  17.79999924  51.25000000
H    14.98999977  16.51000023  51.27999878
H     3.98000002  17.85000038  53.81999969
H     4.42999983  18.79999924  52.49000168
S    15.67000008  15.44999981  55.90000153
C    18.26000023  14.78000069  55.06999969
C    17.02999878  15.36000061  54.79000092
C    16.69000053  15.85000038  53.47999954
C    17.61000061  15.82999992  52.50999832
C    18.90999985  15.36000061  52.72999573
C    19.84000015  15.27999973  51.70000076
C    21.19999886  14.98000050  51.98999786
C    21.55999947  14.42999935  53.23999786
C    20.59000015  14.37000084  54.27999878
C    19.26000023  14.80000019  54.06999969
C    15.24000072  16.05999947  53.33000183
C    14.60999966  15.86999989  54.52999878
C    13.22999954  15.86999989  54.61000061
C    23.00000000  14.02999973  53.62999725
H    23.36345863  14.68274403  54.42367554
H    18.45000076  14.46000004  56.10000229
H    17.34000015  15.93000031  51.45999908
H    19.56999969  15.50000000  50.66999817
H    21.94999886  14.96999931  51.19999695
H    20.72000122  13.96000004  55.27999878
H    12.64000034  15.72999954  55.51000214
H    23.68999863  13.92000008  52.77999878
H    22.95000076  13.04999924  54.12000275
