96

S    12.53000069  16.31999969  44.18000031
C     9.88000011  16.81999969  44.87999725
C    11.10999966  16.29999924  45.27999878
C    11.44999981  15.88999939  46.59999847
C    10.42000008  15.90999985  47.57999802
C     9.11999989  16.40999985  47.18000031
C     8.10999966  16.45000076  48.13999939
C     6.86999989  17.04000092  47.80000305
C     6.47000027  17.34000015  46.46999741
C     7.46999979  17.20000076  45.54000092
C     8.80000019  16.72999954  45.81999969
C    12.92000008  15.62999916  46.69000244
C    13.55999947  15.77999973  45.48999786
C    14.93999958  15.67999935  45.45999908
C     4.97000027  17.56999969  46.10000229
H     4.70761204  17.24201584  45.09418106
H     9.70000076  17.28999901  43.92000198
H    10.60999966  15.70000076  48.62999725
H     8.27000046  16.09000015  49.15000153
H     6.09000015  17.19000053  48.54000092
H     7.23000002  17.39999962  44.50000000
H    15.48999977  15.77999973  44.52000046
H     4.32999992  17.18000031  46.90000153
H     4.65000010  18.63000107  46.07999802
S    16.18999863  15.21000004  49.15999985
C    18.81999969  14.51000023  48.43000031
C    17.54999924  14.96999931  48.09999847
C    17.15999985  15.27999973  46.75000000
C    18.17000008  15.42000008  45.81999969
C    19.47999954  14.94999981  46.16000366
C    20.52000046  14.92000008  45.19000244
C    21.84000015  14.52999973  45.52000046
C    22.13999939  14.09999943  46.81999969
C    21.12999916  13.96000004  47.72999573
C    19.81999969  14.42000008  47.44999695
C    15.67999935  15.42000008  46.52999878
C    15.05000019  15.36999893  47.78999710
C    13.63999939  15.42000008  47.85999680
C    23.61000061  13.78000069  47.22000122
H    23.80724716  14.23293591  48.19161987
H    19.02000046  14.02999973  49.38000107
H    18.04000092  15.78999996  44.79999924
H    20.19000053  15.06000042  44.15999985
H    22.60000038  14.35999966  44.75999832
H    21.21999931  13.68000031  48.76999664
H    13.10999966  15.31999969  48.80000305
H    24.30999947  14.14999962  46.46999741
H    23.75000000  12.69000053  47.27000427
S    12.06999969  16.79000092  50.91999817
C     9.44000053  17.22999954  51.63999939
C    10.67999935  16.63999939  51.90999985
C    10.95000076  16.06999969  53.13999939
C     9.92999935  16.00000000  54.09000015
C     8.69000053  16.54000092  53.89999771
C     7.64999962  16.43000031  54.80999756
C     6.38000011  16.90999985  54.43000031
C     6.12999964  17.54999924  53.16999817
C     7.13000011  17.69000053  52.35000229
C     8.46000004  17.22999954  52.63000107
C    12.38999939  15.78999996  53.33000183
C    13.02999973  16.21000099  52.23999786
C    14.42000008  16.22999954  52.22000122
C     4.65999985  17.73999977  52.68000031
H     4.29435492  17.10908318  51.86984634
H     9.10000038  17.57999992  50.66999817
H    10.19000053  15.43000031  54.97000122
H     7.76999998  15.98999977  55.79000092
H     5.47999954  16.68000031  54.99000168
H     6.84999990  17.97999954  51.33999634
H    14.88999939  16.35000038  51.25000000
H     4.00000000  17.76000023  53.54999924
H     4.59999990  18.75000000  52.27000427
S    15.47999954  15.29999924  55.86999893
C    18.15000153  14.70999908  55.13000107
C    16.90999985  15.27999973  54.78000259
C    16.59000015  15.77000046  53.50000000
C    17.53999901  15.71000004  52.52999878
C    18.82999992  15.22999954  52.84000015
C    19.93999863  15.26000023  51.90999985
C    21.18000031  14.73000050  52.15999985
C    21.54999924  14.29999924  53.47999954
C    20.48000145  14.30999947  54.41999817
C    19.13999939  14.78000069  54.13999939
C    15.14000034  16.03000069  53.36999893
C    14.40000057  15.73999977  54.52000046
C    13.02999973  15.57999992  54.52999878
C    23.00000000  14.01000023  53.81999969
H    23.22591591  14.23591614  54.86212540
H    18.38999939  14.25000000  56.07999802
H    17.26000023  16.06999969  51.55000305
H    19.75000000  15.62999916  50.90999985
H    21.90999985  14.80999947  51.36000061
H    20.66999817  13.88000011  55.40000153
H    12.43999958  15.44999981  55.43000031
H    23.75000000  14.59000015  53.25000000
H    23.26000023  12.96000004  53.62999725
