96

S    11.92999935  16.22999954  44.31999969
C     9.36999989  16.64999962  45.07999802
C    10.60999966  16.31000137  45.43000031
C    10.93999958  15.98000050  46.79000092
C    10.00000000  15.98999977  47.76000214
C     8.67999935  16.36000061  47.42000198
C     7.59999990  16.21999931  48.43000031
C     6.34000015  16.60000038  48.09999847
C     6.09000015  16.92000008  46.75000000
C     7.07000017  16.97999954  45.75000000
C     8.36999989  16.70999908  46.05999756
C    12.42000008  15.85999966  46.79000092
C    13.09999943  15.98000050  45.56999969
C    14.45000076  15.80999947  45.40000153
C     4.76999998  17.46999931  46.45999908
H     4.31846762  16.91969490  45.63454056
H     9.15000057  16.75000000  44.02000046
H    10.22999954  15.59000015  48.74000168
H     7.82000017  15.82999992  49.41999817
H     5.49000025  16.55999947  48.75999832
H     6.86999989  17.35999870  44.75000000
H    14.82999992  15.81999969  44.38999939
H     4.15000010  17.40999985  47.36000061
H     4.81999969  18.54999924  46.26999664
S    15.65999985  15.01999950  49.02000046
C    18.22999954  14.30999947  48.26000214
C    17.02000046  14.81999969  47.88999939
C    16.69999886  15.29999924  46.56999969
C    17.67000008  15.29000092  45.63000107
C    18.95000076  14.85000038  45.93999863
C    20.00000000  14.78000069  45.00000000
C    21.31999969  14.50000000  45.34000015
C    21.61999893  14.07999992  46.65000153
C    20.58000183  13.89999962  47.55000305
C    19.26000023  14.32000065  47.25000000
C    15.22999954  15.59999943  46.49000168
C    14.57999992  15.44999981  47.75000000
C    13.22999954  15.53999996  47.90000153
C    23.03999901  13.83999920  47.15000153
H    23.24773598  14.32710552  48.10272217
H    18.48999977  14.11999893  49.29999924
H    17.29999924  15.40999985  44.61999893
H    19.78000069  15.27999973  44.06000137
H    22.10000038  14.73000050  44.61000061
H    20.72999954  13.52000046  48.55999756
H    12.82999992  15.26999950  48.87000275
H    23.64999962  14.27999973  46.35000229
H    23.09999847  12.75000000  47.21000290
S    15.73999977  12.23000050  52.36000061
C    18.47999954  11.69999981  51.73999786
C    17.15999985  11.76000023  51.36000061
C    16.79999924  11.51999950  49.95999908
C    17.73999977  11.19999981  49.03999710
C    19.04999924  10.92000008  49.47999954
C    20.06000137  10.42000008  48.61000061
C    21.34000015  10.11000061  49.01000214
C    21.86000061  10.64000034  50.27000046
C    20.89999962  11.13000011  51.12999725
C    19.45000076  11.23000050  50.79999924
C    15.36999893  11.65999985  49.78000259
C    14.75000000  12.22000027  50.93999863
C    13.50000000  12.76000023  50.89000320
C    23.26000023  10.32999992  50.68999863
H    23.57399940  10.77959061  51.63200378
H    18.64999962  11.90999985  52.78999710
H    17.46999931  11.05000019  48.00000000
H    19.65999985  10.14000034  47.63999939
H    22.01999855   9.57999992  48.34999847
H    21.17000198  11.28000069  52.18000031
H    13.07000065  12.97000027  51.86000061
H    23.45999908   9.25000000  50.59000015
H    23.85999870  10.73999977  49.86000061
S    12.10999966  11.51999950  47.50000000
C     9.44000053  12.23999977  48.29999924
C    10.80000019  12.27000046  48.47000122
C    11.36000061  12.84000015  49.66999817
C    10.57000065  13.30000019  50.66999817
C     9.19000053  13.27000046  50.54999924
C     8.23999977  13.85000038  51.55000305
C     6.94000006  13.94000053  51.31000137
C     6.37000036  13.35000038  50.14999771
C     7.16000032  12.81000042  49.16999817
C     8.60999966  12.76000023  49.29999924
C    12.76000023  12.69999981  49.72000122
C    13.30999947  11.87999916  48.69999695
C    14.61999989  11.46000004  48.67000198
C     4.90999985  13.47000027  49.85000229
H     4.63667727  13.07440186  48.87179184
H     9.13000011  11.82000065  47.35000229
H    10.98000050  13.71999931  51.59000015
H     8.69000053  14.42999935  52.35000229
H     6.38000011  14.48999977  52.04999924
H     6.71999979  12.31999969  48.29999924
H    15.13000011  11.02000046  47.81000137
H     4.65999985  14.52999973  49.98000336
H     4.42999983  12.97000027  50.70000076
