96

S    11.85999966  16.67000008  44.13000107
C     9.22000027  16.97000122  44.95999908
C    10.47000027  16.64999962  45.22999573
C    10.81999969  16.13000107  46.46999741
C     9.76000023  15.88999939  47.42000198
C     8.42000008  16.27000046  47.15999985
C     7.40999985  16.34000015  48.15000153
C     6.24000025  16.95000076  47.81999969
C     5.89999962  17.30999947  46.50000000
C     6.90999985  17.36999893  45.63000107
C     8.17000008  16.84000015  45.87999725
C    12.18999958  15.84000015  46.63999939
C    12.90999985  16.02000046  45.38999939
C    14.27000046  15.81999969  45.24000168
C     4.46000004  17.75000000  46.11000061
H     4.13424969  17.15641212  45.25580978
H     8.89000034  17.61000061  44.13999939
H     9.94000053  15.51000023  48.41999817
H     7.53000021  16.20000076  49.22000122
H     5.63000011  17.11000061  48.69999695
H     6.77999973  17.89999962  44.68999863
H    14.80000019  16.21999931  44.38999939
H     3.88999987  17.59000015  47.02999878
H     4.42000008  18.78999901  45.77000046
S    15.34999943  15.01999950  48.97999573
C    18.04999924  14.56999969  48.36999893
C    16.72999954  14.96999931  47.95000076
C    16.42000008  15.47000027  46.62000275
C    17.48999977  15.57000065  45.73999786
C    18.79999924  15.13000011  46.11999893
C    19.90999985  15.14000034  45.22999573
C    21.12999916  14.68999958  45.65000153
C    21.35000038  14.22000027  46.95999908
C    20.30999947  14.19999981  47.81999969
C    19.04000092  14.65999985  47.43999863
C    14.96000099  15.59999943  46.38999939
C    14.26000023  15.46000004  47.63000107
C    12.89999962  15.40999985  47.70000076
C    22.75000000  13.61999989  47.36999893
H    23.11422348  14.03521538  48.30970001
H    18.30999947  14.15999985  49.34999847
H    17.21999931  15.70000076  44.68999863
H    19.77000046  15.55999947  44.22999954
H    21.91999817  14.75999928  44.91000366
H    20.56999969  13.83999920  48.81999969
H    12.38999939  15.14000034  48.61999893
H    23.47999954  13.86999989  46.58000183
H    22.65999985  12.51999950  47.30999756
S    15.64000034  12.79999924  52.42000198
C    18.22000122  12.05000019  51.81999969
C    16.92000008  12.07999992  51.43000031
C    16.42000008  11.54000092  50.19000244
C    17.31999969  10.95000076  49.36000061
C    18.68000031  10.90999985  49.66999817
C    19.62000084  10.31000042  48.74000168
C    21.02000046  10.26999950  49.05000305
C    21.45000076  10.72000027  50.27999878
C    20.53999901  11.23999977  51.20999908
C    19.15999985  11.47999954  50.91999817
C    14.96999931  11.59000015  50.08999634
C    14.45000076  12.30000019  51.19999695
C    13.09999943  12.65999985  51.22000122
C    22.88999939  10.48999977  50.61999893
H    23.24800491  11.07449722  51.46752167
H    18.50000000  12.43999958  52.78999710
H    17.05000114  10.38000011  48.47000122
H    19.19999886  10.00000000  47.78999710
H    21.68000031   9.77000046  48.34999847
H    20.72999954  11.65999985  52.19999695
H    12.86000061  13.22999954  52.11000061
H    23.15000153   9.46000004  50.90000153
H    23.52000046  10.71000004  49.75000000
S    11.76000023  11.52999973  47.69000244
C     9.13999939  12.28999996  48.36999893
C    10.50000000  12.27000046  48.66000366
C    10.97000027  12.84999943  49.86999893
C    10.01000023  13.42000008  50.72999954
C     8.59000015  13.27999973  50.47000122
C     7.59000015  13.68999958  51.42000198
C     6.28000021  13.56999969  51.11000061
C     5.78999996  13.12000084  49.87999725
C     6.76999998  12.64000034  48.99000168
C     8.17000008  12.77999973  49.19000244
C    12.25999928  12.35000038  50.15999603
C    12.89000034  11.59000015  49.05000305
C    14.22999954  11.16000080  49.02000046
C     4.38000011  13.17999935  49.47000122
H     4.26993942  12.91860485  48.41754532
H     8.71999931  11.85999966  47.47000122
H    10.27999973  13.78999901  51.72000122
H     7.85000038  14.07999992  52.39999771
H     5.55999994  13.97999954  51.81999969
H     6.43000031  12.15000057  48.08000183
H    14.63000107  10.62000084  48.16999817
H     3.93000007  14.14000034  49.75000000
H     3.82999992  12.44999981  50.06999969
