96

S    12.31999969  16.32999992  44.23999786
C     9.70000076  16.61000061  44.89999771
C    10.95000076  16.21999931  45.25000000
C    11.26999950  15.82999992  46.56999969
C    10.21000004  15.88000107  47.49000168
C     8.93999958  16.31999969  47.16999817
C     7.94000053  16.50000000  48.18000031
C     6.61999989  16.90999985  47.88999939
C     6.34999990  17.19000053  46.55000305
C     7.26999998  17.13999939  45.59000015
C     8.64999962  16.72999954  45.86000061
C    12.69000053  15.73999977  46.86000061
C    13.47000027  16.07999992  45.68000031
C    14.85000038  15.98000050  45.65999985
C     4.94000006  17.64999962  46.23000336
H     4.60857916  17.26921844  45.26394653
H     9.46000004  16.92000008  43.88000107
H    10.44000053  15.44000053  48.44999695
H     8.23000050  16.18000031  49.18000031
H     5.84999990  17.02000046  48.66000366
H     7.13000011  17.43000031  44.54999924
H    15.36000061  16.26000023  44.73999786
H     4.19999981  17.35000038  46.97999954
H     4.92000008  18.73999977  46.24000168
S    15.77999973  14.52000046  49.15000153
C    18.39999962  13.93000031  48.43999863
C    17.20999908  14.52000046  48.06999969
C    16.87999916  15.14999962  46.86000061
C    18.00000000  15.21000004  46.00000000
C    19.29999924  14.70000076  46.35000229
C    20.45999908  14.80999947  45.47000122
C    21.71999931  14.40000057  45.79999924
C    21.93000031  13.93000031  47.12999725
C    20.86999893  13.69999981  48.04000092
C    19.47999954  14.04999924  47.62000275
C    15.50000000  15.52000046  46.81000137
C    14.73999977  15.31999969  48.01000214
C    13.35999966  15.36999893  48.09000015
C    23.21000099  13.38999939  47.63999939
H    23.53206444  13.89814568  48.54893494
H    18.37000084  13.35999966  49.36000061
H    17.84000015  15.59000015  44.99000168
H    20.23999977  15.10000038  44.45000076
H    22.50000000  14.37999916  45.04000092
H    21.01000023  13.17999935  48.99000168
H    12.76999950  15.01999950  48.94000244
H    23.92000008  13.61999989  46.83000183
H    23.09999847  12.31999969  47.80000305
S    11.56999969  16.47999954  50.79999924
C     8.97000027  16.79000092  51.51000214
C    10.21000004  16.29999924  51.84999847
C    10.60999966  16.02000046  53.20000076
C     9.59000015  16.13000107  54.10999680
C     8.26000023  16.45000076  53.81000137
C     7.28999996  16.68000031  54.79000092
C     6.02999973  17.12000084  54.43999863
C     5.73999977  17.50000000  53.13000107
C     6.75000000  17.48999977  52.22000122
C     7.96000004  16.77000046  52.47000122
C    12.01000023  15.85000038  53.30999756
C    12.69999981  16.03999901  52.09000015
C    14.11999893  15.98999977  52.02000046
C     4.32999992  17.71999931  52.68000031
H     4.03132582  17.10131645  51.83375931
H     8.80000019  17.39999962  50.63000107
H     9.72999954  16.25000000  55.18000031
H     7.59999990  16.61999893  55.83000183
H     5.23000002  17.30999947  55.14999771
H     6.61000013  17.89999962  51.22000122
H    14.70000076  16.28000069  51.14999771
H     3.63000011  17.46999931  53.47999954
H     4.05000019  18.72999954  52.37999725
S    15.19000053  15.44000053  55.77999878
C    17.92000008  14.77000046  55.01999664
C    16.61999893  15.19000053  54.73999786
C    16.20000076  15.38000011  53.43999863
C    17.07999992  15.31999969  52.36999893
C    18.40999985  14.84000015  52.58999634
C    19.40999985  14.65999985  51.63999939
C    20.72999954  14.17000008  51.88000107
C    21.11000061  13.85000038  53.23999786
C    20.13000107  14.06000042  54.20000076
C    18.81999969  14.47999954  53.94000244
C    14.77000046  15.62000084  53.20000076
C    14.02999973  15.47999954  54.40000153
C    12.67000008  15.69000053  54.51000214
C    22.50999832  13.35000038  53.62999725
H    22.77774429  13.97232533  54.48388672
H    18.30000114  14.55000019  56.02000427
H    16.62999916  15.43000031  51.38000107
H    19.15999985  14.96000099  50.63000107
H    21.40000153  14.00000000  51.04000092
H    20.48000145  13.96999931  55.22999573
H    12.25000000  15.75000000  55.50000000
H    23.26000023  13.50999928  52.84999847
H    22.43000031  12.27000046  53.75000000
