96

S    12.11999989  16.50000000  43.99000168
C     9.55000019  17.04000092  44.93000031
C    10.81999969  16.59000015  45.22999573
C    11.23000050  16.28999901  46.56000137
C    10.34000015  16.27000046  47.63999939
C     8.97000027  16.57999992  47.28000259
C     7.99000025  16.61999893  48.30999756
C     6.70000029  17.02999878  47.98999786
C     6.32999992  17.48999977  46.68000031
C     7.26999998  17.38000107  45.68000031
C     8.60000038  16.97999954  45.94999695
C    12.67000008  16.06999969  46.56999969
C    13.32999992  16.18000031  45.31999969
C    14.77000046  16.03999901  45.18000031
C     4.90000010  17.72999954  46.26999664
H     4.61230946  17.19887924  45.36266708
H     9.35999966  17.32999992  43.89999771
H    10.73999977  16.31000137  48.64999771
H     8.06999969  16.18000031  49.29999924
H     5.92999983  16.95000076  48.75000000
H     7.07000017  17.77000046  44.68000031
H    15.06999969  16.23999977  44.15000153
H     4.23999977  17.38000107  47.06999969
H     4.78999996  18.81999969  46.19999695
S    15.77999973  15.39999962  48.95999908
C    18.57999992  15.15999985  48.36999893
C    17.28999901  15.44999981  47.97999954
C    16.95999908  15.72000027  46.56000137
C    17.95999908  15.67999935  45.63999939
C    19.30999947  15.44000053  46.02000427
C    20.38999939  15.34999943  45.06999969
C    21.67000008  15.06999969  45.51000214
C    21.84999847  14.42999935  46.79999924
C    20.84000015  14.46000004  47.68000031
C    19.61000061  15.03999901  47.36999893
C    15.55999947  15.90999985  46.33999634
C    14.81999969  15.78999996  47.54000092
C    13.43000031  15.80000019  47.63999939
C    23.22999954  14.01000023  47.22999954
H    23.61309814  14.64140034  48.03166580
H    18.78000069  15.03999901  49.43000031
H    17.65999985  15.64000034  44.59999847
H    20.15999985  15.44000053  44.02000046
H    22.47999954  15.21000004  44.79999924
H    21.04999924  14.21000004  48.72000122
H    13.04999924  15.57000065  48.62999725
H    23.90999985  13.97999954  46.37000275
H    23.08000183  12.97999954  47.57999802
S    16.46000099  12.61000061  52.09000015
C    19.03000069  12.18999958  51.24000168
C    17.76000023  12.11999989  50.94999695
C    17.25000000  11.69999981  49.66999817
C    18.15999985  11.44999981  48.63999939
C    19.52000046  11.43000031  48.94000244
C    20.42000008  10.67999935  48.11000061
C    21.68999863  10.50000000  48.50999832
C    22.22999954  11.00000000  49.75000000
C    21.37000084  11.76000023  50.56000137
C    19.96000099  11.90000057  50.17000198
C    15.80000019  11.82000065  49.62999725
C    15.19999981  12.30999947  50.86000061
C    13.96000004  12.93000031  50.79000092
C    23.61999893  10.60999966  50.22999573
H    23.81392288  11.00477219  51.22731781
H    19.34000015  12.60000038  52.19999695
H    17.71999931  11.00999928  47.75000000
H    20.07999802  10.19999981  47.19999695
H    22.30999947   9.85999966  47.88000107
H    21.63999939  12.06999969  51.56999969
H    13.66000080  13.40999985  51.72000122
H    23.75000000   9.52000046  50.20999908
H    24.43000031  11.00000000  49.59999847
S    12.35999966  11.89000034  47.35000229
C     9.77999973  12.76000023  48.18000031
C    11.14999962  12.65999985  48.43000031
C    11.73999977  12.96000004  49.73999786
C    10.90000057  13.36999989  50.77000046
C     9.51000023  13.55999947  50.47999954
C     8.57999992  14.02999973  51.47999573
C     7.23000002  14.14999962  51.20999908
C     6.67999983  13.66000080  50.04000092
C     7.50999975  13.22000027  49.01000214
C     8.92000008  13.15000057  49.22999954
C    13.12000084  12.69000053  49.75000000
C    13.61999989  12.02999973  48.67000198
C    14.96000099  11.59999943  48.53000259
C     5.26000023  13.93000031  49.73999786
H     4.95826483  13.60721397  48.74357224
H     9.40999985  12.35000038  47.25000000
H    11.26999950  13.67000008  51.75000000
H     8.97999954  14.45000076  52.39999771
H     6.57000017  14.73999977  51.84000015
H     7.17999983  13.15999985  47.97999954
H    15.31999969  11.21000099  47.58999634
H     5.09000015  15.01000023  49.75999832
H     4.57999992  13.43000031  50.44000244
