96

S    12.43999958  16.36000061  44.00000000
C     9.72999954  16.51000023  44.68000031
C    11.05000019  16.13999939  45.02999878
C    11.36000061  15.51000023  46.24000168
C    10.31000042  15.31999969  47.16999817
C     9.04999924  15.76000023  46.83000183
C     8.05000019  15.80999947  47.85999680
C     6.75000000  16.36000061  47.54000092
C     6.39999962  16.87999916  46.26999664
C     7.40000010  16.90999985  45.31000137
C     8.71999931  16.31999969  45.56999969
C    12.84000015  15.34999943  46.45000076
C    13.55000019  15.80999947  45.27999878
C    14.88000011  15.76000023  45.18000031
C     4.96000004  17.27000046  45.90000153
H     4.50724983  16.67387962  45.10768890
H     9.55999947  17.02999878  43.74000168
H    10.55999947  14.82999992  48.11000061
H     8.28999996  15.51000023  48.87000275
H     6.07999992  16.36000061  48.40000153
H     7.17999983  17.26000023  44.29999924
H    15.25000000  16.03999901  44.20000076
H     4.25000000  17.20999908  46.72999954
H     4.98000002  18.34000015  45.65999985
S    16.04999924  14.51000023  48.88000107
C    18.71999931  14.11999893  48.06000137
C    17.43000031  14.55000019  47.75000000
C    17.12000084  15.10000038  46.44000244
C    18.15000153  15.22999954  45.50000000
C    19.48999977  14.88000011  45.81999969
C    20.65999985  15.10000038  44.97000122
C    21.94000053  14.65999985  45.26000214
C    22.17000008  14.18000031  46.55000305
C    21.14000130  13.92000008  47.45999908
C    19.76000023  14.25000000  47.11999893
C    15.65000057  15.31000042  46.32999802
C    14.96000099  15.01999950  47.56999969
C    13.55000019  15.06999969  47.56000137
C    23.61000061  13.92000008  46.98999786
H    23.87367058  14.54987907  47.83960342
H    19.04000092  13.73999977  49.02999878
H    17.90999985  15.71000004  44.55999756
H    20.48999977  15.67000008  44.06999969
H    22.79999924  14.85000038  44.61999893
H    21.40999985  13.43999958  48.40000153
H    13.02999973  14.82999992  48.48999786
H    24.23999977  14.14999962  46.12999725
H    23.68999863  12.86999893  47.31999969
S    15.98000050  12.23000050  52.29000092
C    18.76000023  11.77999973  51.50000000
C    17.38000107  11.73999977  51.23000336
C    16.88999939  11.25000000  49.94999695
C    17.80999947  10.90000057  48.93000031
C    19.17000008  10.97000027  49.15000153
C    20.10000038  10.52000046  48.23999786
C    21.42000008  10.52000046  48.48999786
C    21.88999939  10.95000076  49.66999817
C    21.09999847  11.51999950  50.59999847
C    19.67000008  11.40999985  50.40000153
C    15.42000008  11.61999893  49.84000397
C    14.78000069  12.15000057  50.93999863
C    13.48000050  12.56999969  50.96000290
C    23.35000038  10.88999939  49.88999939
H    23.68436813  11.28009796  50.85131073
H    19.17000008  12.13000107  52.43999863
H    17.46000099  10.60999966  47.94000244
H    19.70000076  10.14000034  47.29999924
H    22.13999939  10.26999950  47.71999741
H    21.54999924  12.10999966  51.38999939
H    12.97000027  12.64999962  51.90999985
H    23.64000130   9.82999992  49.88999939
H    23.84000015  11.42000008  49.06000137
S    12.03999996  11.72000027  47.42000198
C     9.34000015  12.15999985  48.20000076
C    10.71000004  12.23999977  48.40999985
C    11.26000023  12.53000069  49.71000290
C    10.44000053  12.89000034  50.70000076
C     9.06000042  12.96000004  50.51000214
C     8.23999977  13.50000000  51.46999741
C     6.90999985  13.57999992  51.23000336
C     6.34999990  13.27999973  49.95999908
C     7.13999987  12.76000023  48.95999908
C     8.50000000  12.53999901  49.22000122
C    12.71000004  12.48999977  49.78000259
C    13.30999947  11.97000027  48.68000031
C    14.68999958  11.64999962  48.67000198
C     4.86999989  13.40999985  49.72999954
H     4.71753883  13.09055805  48.69906998
H     8.80999947  11.97000027  47.27000427
H    11.00999928  13.35000038  51.51000214
H     8.61999989  13.71999931  52.45999908
H     6.30999994  13.81000042  52.11000061
H     6.67999983  12.56000042  48.00000000
H    15.14999962  11.30000019  47.75000000
H     4.51999998  14.35999966  50.14999771
H     4.32999992  12.71000004  50.37000275
