96

S    12.15999985  15.82999992  44.12000275
C     9.63000011  16.40999985  44.87999725
C    10.80000019  15.90000057  45.18000031
C    11.07999992  15.51000023  46.51000214
C    10.11999989  15.50000000  47.51999664
C     8.86999989  16.04999924  47.18000031
C     7.81000042  16.06999969  48.11000061
C     6.51999998  16.57999992  47.85999680
C     6.30999994  16.98999977  46.45999908
C     7.28999996  17.01000023  45.56000137
C     8.61999989  16.55999947  45.86000061
C    12.55000019  15.29999924  46.65999985
C    13.27000046  15.34999943  45.43000031
C    14.65000057  15.31999969  45.41999817
C     4.90999985  17.32999992  45.98999786
H     4.52627087  16.75078583  45.15013885
H     9.40999985  16.59000015  43.81999969
H    10.34999943  15.19999981  48.54000092
H     8.02999973  15.67000008  49.09999847
H     5.65000010  16.52000046  48.50999832
H     7.21000004  17.38000107  44.54999924
H    15.27999973  15.50000000  44.54999924
H     4.23000002  17.26000023  46.84000015
H     4.79999971  18.38000107  45.65999985
S    15.72000027  14.75000000  49.13000107
C    18.31999969  14.50000000  48.60000229
C    17.10000038  14.77000046  48.11000061
C    16.79999924  14.91000080  46.79999924
C    17.79999924  14.88000011  45.90999985
C    19.15999985  14.73999977  46.27999878
C    20.17999840  14.55999947  45.31999969
C    21.42999840  14.25000000  45.70000076
C    21.68000031  13.86000061  47.04000092
C    20.75000000  13.97999954  48.06000137
C    19.43000031  14.39000034  47.67000198
C    15.34000015  15.01000023  46.60999680
C    14.60000038  14.84000015  47.77000046
C    13.25000000  15.08999920  47.85999680
C    23.09000015  13.53999996  47.39999771
H    23.47051048  14.29384136  48.08922577
H    18.43000031  14.09000015  49.59999847
H    17.52000046  14.96999931  44.86000061
H    19.88000107  14.68999958  44.27999878
H    22.22999954  14.15999985  44.97000122
H    21.01000023  13.78999901  49.09000015
H    12.74000072  14.91000080  48.81000137
H    23.74000168  13.43999958  46.52000046
H    23.02000046  12.53999901  47.84999847
S    11.92000008  16.07999992  50.87999725
C     9.23999977  16.64999962  51.58000183
C    10.48999977  16.06999969  51.93999863
C    10.77999973  15.59999943  53.26000214
C     9.73999977  15.69000053  54.23999786
C     8.47999954  16.26000023  53.89999771
C     7.46999979  16.36000061  54.84000397
C     6.17999983  16.77999878  54.51000214
C     5.84000015  17.06999969  53.13000107
C     6.84000015  17.01000023  52.21000290
C     8.19000053  16.61999893  52.56000137
C    12.18000031  15.39000034  53.43999863
C    12.94999981  15.70000076  52.25999832
C    14.32999992  15.85999966  52.27000427
C     4.32000017  17.31999969  52.74000168
H     4.04741192  16.95415688  51.75007629
H     9.22999954  17.20000076  50.63999939
H     9.92000008  15.26999950  55.21999741
H     7.63000011  15.95999908  55.84000015
H     5.45000029  16.70999908  55.31000137
H     6.74000025  17.29999924  51.16000366
H    14.92000008  16.13999939  51.39999771
H     3.75000000  16.79999924  53.52000427
H     4.07999992  18.38999939  52.77000046
S    15.36000061  14.68000031  55.91999817
C    18.07999992  14.65999985  55.27999878
C    16.79000092  14.94999981  54.93000031
C    16.44000053  15.46000004  53.66000366
C    17.39999962  15.62999916  52.68000031
C    18.81000137  15.31000042  52.97999954
C    19.78999901  15.27999973  52.04000092
C    21.04000092  14.68000031  52.22999954
C    21.35000038  14.32999992  53.53000259
C    20.36999893  14.28999996  54.50000000
C    19.05999947  14.77000046  54.26000214
C    15.01000023  15.55999947  53.43000031
C    14.27000046  15.19999981  54.61999893
C    12.89999962  15.03999901  54.65000153
C    22.72999954  13.90999985  53.88999939
H    23.11532974  14.45231819  54.75342941
H    18.23999977  14.14999962  56.22000122
H    17.07999992  15.69000053  51.65000153
H    19.47999954  15.54999924  51.03000259
H    21.73000145  14.46000004  51.42000198
H    20.48999977  13.83999920  55.47999954
H    12.46999931  14.77000046  55.61000061
H    23.44000053  14.02999973  53.06999969
H    22.63999939  12.89000034  54.31000137
