96

S    12.02000046  16.25000000  44.34000015
C     9.43000031  16.76000023  45.13999939
C    10.62000084  16.18000031  45.41999817
C    10.95999908  15.64000034  46.72999954
C    10.01000023  15.57000065  47.65999603
C     8.64000034  16.02000046  47.39999771
C     7.57999992  16.02000046  48.40999985
C     6.37000036  16.46000099  48.08000183
C     6.05999994  16.87999916  46.81999969
C     7.09000015  17.11000061  45.93999863
C     8.42000008  16.70999908  46.12999725
C    12.43999958  15.60999966  46.83000183
C    13.15000057  16.02000046  45.65000153
C    14.53999996  15.90999985  45.59999847
C     4.63000011  17.30999947  46.52000046
H     4.14857912  16.75778198  45.71291351
H     9.38000011  17.43999863  44.29000092
H    10.29000092  15.34000015  48.68000031
H     7.85000038  15.70000076  49.40999985
H     5.59999990  16.61999893  48.82999802
H     6.75000000  17.53999901  45.00000000
H    15.05000019  15.90999985  44.64000320
H     4.01999998  17.26000023  47.43000031
H     4.74000025  18.36000061  46.23000336
S    15.69000053  14.75000000  49.22999954
C    18.32999992  14.65999985  48.50000000
C    17.02000046  14.88000011  48.09999847
C    16.64999962  15.27999973  46.79999924
C    17.71000099  15.42000008  45.86999893
C    19.04000092  15.05000019  46.20999908
C    20.12000084  15.06000042  45.21999741
C    21.38000107  14.75999928  45.48999786
C    21.68000031  14.44000053  46.86000061
C    20.66999817  14.29999924  47.77999878
C    19.30999947  14.65000057  47.50999832
C    15.18000031  15.52999973  46.73999786
C    14.52000046  15.19999981  47.97000122
C    13.12000084  15.22999954  48.01000214
C    23.06999969  14.01999950  47.23999786
H    23.33552361  14.20658398  48.28056717
H    18.53000069  14.27999973  49.50000000
H    17.48999977  15.64000034  44.82999802
H    19.89999962  15.15999985  44.15999985
H    22.13000107  14.78000069  44.69999695
H    20.92000008  13.99000072  48.79000092
H    12.56999969  14.96999931  48.90999603
H    23.81000137  14.53999996  46.60999680
H    23.15999985  12.97000027  46.93000031
S    11.71000004  16.75000000  50.84000015
C     8.96000004  16.80999947  51.45000076
C    10.24000072  16.47999954  51.83000183
C    10.57999992  15.93999958  53.13000107
C     9.55000019  15.73999977  54.05000305
C     8.27000046  16.11999893  53.73000336
C     7.18999958  16.02000046  54.66999817
C     6.00000000  16.72000122  54.47999954
C     5.71000004  17.23999977  53.22999954
C     6.63999987  17.19000053  52.25999832
C     7.96999979  16.67000008  52.42000198
C    12.02000046  15.82999992  53.34000015
C    12.74000072  16.25000000  52.19999695
C    14.11999893  16.21999931  52.16999817
C     4.26000023  17.64999962  52.93000031
H     3.84498549  16.97023392  52.18583679
H     8.76999950  17.35999870  50.54000092
H     9.70000076  15.39999962  55.06999969
H     7.40999985  15.47000027  55.58000183
H     5.26000023  16.65999985  55.27000046
H     6.44999981  17.57999992  51.25999832
H    14.60000038  16.47999954  51.23000336
H     3.68000007  17.79000092  53.85000229
H     4.28999996  18.67000008  52.52999878
S    14.88999939  14.88999939  55.76000214
C    17.64999962  14.52999973  55.14999771
C    16.39000130  14.85999966  54.78000259
C    16.18000031  15.38000011  53.47999954
C    17.25000000  15.59999943  52.61000061
C    18.56999969  15.17000008  52.90000153
C    19.68000031  15.17000008  51.97999954
C    20.86999893  14.65999985  52.35000229
C    21.05999947  14.09000015  53.67000198
C    20.03000069  14.11999893  54.54999924
C    18.71999931  14.60999966  54.22000122
C    14.77000046  15.75000000  53.27000046
C    14.04000092  15.51000023  54.45999908
C    12.67000008  15.59999943  54.52999878
C    22.55000114  13.73999977  54.12000275
H    22.85247231  14.16050911  55.07905579
H    17.86999893  14.29999924  56.18999863
H    17.23999977  16.10999870  51.65000153
H    19.48999977  15.57999992  50.98999786
H    21.68000031  14.52999973  51.63999939
H    20.15999985  13.73000050  55.56000137
H    12.13999939  15.40999985  55.45999908
H    23.23999786  14.09999943  53.34999847
H    22.56999969  12.64999962  54.23999786
