96

S    12.38000011  16.23999977  44.22000122
C     9.64999962  16.73999977  44.86000061
C    10.95999908  16.28000069  45.21999741
C    11.25000000  15.71000004  46.56000137
C    10.19999981  15.67000008  47.50000000
C     8.88000011  16.05999947  47.15999985
C     7.77999973  15.88999939  48.02999878
C     6.58999968  16.46000099  47.70999908
C     6.21999979  17.17000008  46.51000214
C     7.26999998  17.35999870  45.61999893
C     8.59000015  16.77999878  45.89000320
C    12.69000053  15.42000008  46.70999908
C    13.35000038  15.67999935  45.51000214
C    14.70000076  15.60999966  45.48999786
C     4.78999996  17.36999893  46.06999969
H     4.53684425  16.87071991  45.13472748
H     9.44999981  17.13000107  43.86000061
H    10.39000034  15.15999985  48.43999863
H     7.85000038  15.42000008  49.01000214
H     5.78000021  16.45000076  48.43999863
H     7.09000015  17.60000038  44.56999969
H    15.08999920  15.88000107  44.51000214
H     4.02999973  17.10000038  46.81000137
H     4.57999992  18.42000008  45.81999969
S    15.72000027  14.42000008  49.13000107
C    18.35000038  13.90999985  48.27999878
C    17.17000008  14.50000000  48.02999878
C    16.90000153  15.13000011  46.81000137
C    17.90999985  15.26000023  45.84000015
C    19.23999977  14.78999996  46.12999725
C    20.36000061  14.93999958  45.26000214
C    21.56999969  14.35999966  45.51000214
C    21.80000114  13.76000023  46.77999878
C    20.78000069  13.61999989  47.68000031
C    19.47000122  14.09999943  47.34000397
C    15.48999977  15.29999924  46.62000275
C    14.70000076  14.98000050  47.83000183
C    13.34000015  15.01999950  47.84999847
C    23.22000122  13.40999985  47.25000000
H    23.43561935  13.76936245  48.25621414
H    18.53999901  13.38000107  49.20999908
H    17.73999977  15.60999966  44.82999802
H    20.17999840  15.44999981  44.31999969
H    22.34000015  14.42999935  44.75000000
H    20.94000053  13.23999977  48.68999863
H    12.71999931  14.68000031  48.68000031
H    23.82999802  13.94000053  46.51000214
H    23.43000031  12.34000015  47.28000259
S    15.70000076  11.84999943  52.50000000
C    18.42000008  11.44000053  51.81999969
C    17.05999947  11.44000053  51.39999771
C    16.63999939  11.10000038  50.12000275
C    17.57999992  10.76000023  49.15999985
C    18.93000031  10.71000004  49.58000183
C    20.00999832  10.26000023  48.67000198
C    21.34000015  10.39999962  48.99000168
C    21.76000214  10.69000053  50.31000137
C    20.81000137  10.95999908  51.22000122
C    19.40999985  11.03000069  50.90999985
C    15.17000008  11.26999950  49.98000336
C    14.57999992  11.72000027  51.18000031
C    13.23999977  12.05000019  51.25000000
C    23.19000053  10.34000015  50.59000015
H    23.48294449  10.66781807  51.58740616
H    18.68999863  11.98999977  52.71999741
H    17.36999893  10.67999935  48.09999847
H    19.76000023   9.85000038  47.69000244
H    22.13000107  10.13000011  48.29999924
H    21.09000015  11.09000015  52.25999832
H    12.71000004  12.48999977  52.09000015
H    23.35000038   9.26000023  50.45000076
H    23.81999969  10.77000046  49.80999756
S    11.90000057  11.31999969  47.45999908
C     9.34000015  12.02999973  48.25000000
C    10.59999943  11.87000084  48.59000397
C    11.06999969  12.22000027  49.91000366
C    10.19000053  12.75000000  50.81999969
C     8.85000038  12.90999985  50.52999878
C     7.90999985  13.57999992  51.40999603
C     6.61999989  13.80000019  51.02000427
C     6.19000006  13.34000015  49.78000259
C     7.07000017  12.81000042  48.82999802
C     8.40999985  12.55000019  49.15999985
C    12.53000069  11.97999954  50.06999969
C    13.09999943  11.54000092  48.80000305
C    14.40000057  11.13000011  48.75999832
C     4.73000002  13.63999939  49.43000031
H     4.44130468  13.29497433  48.43716812
H     9.07999992  11.73999977  47.22999954
H    10.59999943  12.97000027  51.79999924
H     8.19999981  13.75000000  52.43999863
H     5.97000027  14.19999981  51.79000092
H     6.76000023  12.88000011  47.78999710
H    14.78999996  10.54999924  47.93000031
H     4.53999996  14.72000027  49.36000061
H     4.07999992  13.22000027  50.20999908
