96

S    12.18000031  16.68000031  44.09999847
C     9.55000019  17.10000038  44.87999725
C    10.80000019  16.62999916  45.11000061
C    11.13999939  16.26000023  46.44000244
C    10.21999931  16.25000000  47.43999863
C     8.86999989  16.68000031  47.25000000
C     7.88000011  16.77999878  48.30999756
C     6.61999989  17.30999947  48.08000183
C     6.30999994  17.64000130  46.75000000
C     7.23000002  17.57999992  45.73999786
C     8.56000042  17.13000107  45.90999985
C    12.55000019  16.00000000  46.59000015
C    13.28999996  16.35000038  45.45000076
C    14.67000008  16.28999901  45.31999969
C     4.85000038  17.97999954  46.42000198
H     4.45579243  17.29013634  45.67382050
H     9.26999950  17.42000008  43.87000275
H    10.52000046  16.03999901  48.46000290
H     8.19000053  16.44000053  49.29000092
H     5.88999987  17.26000023  48.88000107
H     6.90000010  17.85000038  44.73999786
H    15.21999931  16.43000031  44.38999939
H     4.21999979  18.06999969  47.31999969
H     4.97000027  19.00000000  46.02000427
S    15.71000004  15.39000034  49.03999710
C    18.45000076  15.06000042  48.33000183
C    17.15999985  15.48999977  48.02000046
C    16.84999847  15.88000107  46.65000153
C    17.89999962  16.09000015  45.75000000
C    19.22000122  15.72000027  46.09000397
C    20.31999969  15.80999947  45.21999741
C    21.60000038  15.53999996  45.73999786
C    21.76000214  14.81999969  46.97000122
C    20.68000031  14.55999947  47.70999908
C    19.45000076  15.08999920  47.32999802
C    15.38000011  15.95000076  46.49000168
C    14.63000107  15.71000004  47.65999603
C    13.22999954  15.77000046  47.80000305
C    23.12999916  14.22000027  47.38999939
H    23.55315971  14.76108932  48.23632050
H    18.60000038  14.60999966  49.31000137
H    17.53999901  16.38000107  44.75999832
H    20.15999985  16.25000000  44.22999954
H    22.46999931  15.80000019  45.13999939
H    20.86999893  14.04000092  48.63999939
H    12.76999950  15.72999954  48.77999878
H    23.74000168  14.27000046  46.47999573
H    23.02000046  13.15999985  47.64999771
S    11.98999977  16.69999886  51.14999771
C     9.35000038  17.30999947  51.88999939
C    10.54999924  16.76000023  52.22999954
C    10.85999966  16.29999924  53.52000427
C     9.88000011  16.17000008  54.43999863
C     8.64000034  16.63999939  54.13000107
C     7.55000019  16.53000069  55.00999832
C     6.30999994  16.93000031  54.86999893
C     6.02999973  17.46000099  53.55999756
C     7.05999947  17.75000000  52.61000061
C     8.38000011  17.26000023  52.88000107
C    12.32999992  16.26000023  53.72000122
C    13.07999992  16.43000031  52.50000000
C    14.44000053  16.34000015  52.37999725
C     4.63999987  17.64999962  53.11000061
H     4.39529800  17.23750114  52.13119125
H     9.17000008  17.64000130  50.86999893
H    10.19999981  15.77000046  55.40000153
H     7.86999989  16.26000023  56.00999832
H     5.59000015  16.70999908  55.65000153
H     6.89000034  18.01000023  51.56999969
H    14.93000031  16.31999969  51.40999603
H     3.93000007  17.18000031  53.80000305
H     4.32000017  18.70000076  53.08000183
S    15.62999916  15.24000072  55.93000031
C    18.36000061  15.11000061  55.10000229
C    17.06999969  15.34999943  54.85000229
C    16.61000061  15.80000019  53.57999802
C    17.53999901  15.95000076  52.56999969
C    18.92000008  15.71000004  52.76000214
C    19.98999977  15.80999947  51.77999878
C    21.28000069  15.39000034  52.06999969
C    21.59000015  14.88000011  53.43000031
C    20.66999817  14.91000080  54.43000031
C    19.29000092  15.26999950  54.09999847
C    15.18000031  16.04999924  53.48999786
C    14.47999954  15.72000027  54.65999985
C    13.10999966  15.85999966  54.80999756
C    22.92000008  14.22999954  53.77999878
H    23.20838737  14.69142056  54.72446823
H    18.59000015  14.72000027  56.09000397
H    17.23999977  16.21999931  51.56000137
H    19.69000053  16.17000008  50.79999924
H    22.04999924  15.18000031  51.33999634
H    20.81999969  14.60999966  55.47000122
H    12.61999989  15.31000042  55.61999893
H    23.59999847  14.61999989  53.01000214
H    22.80999947  13.14000034  53.70999908
