96

S    12.20000076  16.15999985  44.08000183
C     9.52999973  16.38000107  44.73999786
C    10.80999947  15.98999977  45.10000229
C    11.18000031  15.53999996  46.45999908
C    10.19000053  15.67000008  47.43999863
C     8.89999962  16.13000107  47.09999847
C     7.85000038  16.03999901  48.02999878
C     6.60000038  16.53000069  47.67000198
C     6.30000019  16.97000122  46.36000061
C     7.27999973  17.05999947  45.40999985
C     8.52000046  16.46000099  45.70000076
C    12.64000034  15.54999924  46.62000275
C    13.35000038  15.85000038  45.41999817
C    14.78999996  15.86999989  45.35999680
C     4.79999971  17.28999901  45.97000122
H     4.41741371  16.80822372  45.07021332
H     9.35000038  16.90000153  43.80000305
H    10.26000023  15.27999973  48.44999695
H     8.13000011  15.70000076  49.02000046
H     5.84000015  16.46000099  48.43000031
H     7.05999947  17.35000038  44.38000107
H    15.29000092  15.93000031  44.40000153
H     4.09999990  16.98999977  46.77000046
H     4.72000027  18.38000107  45.87999725
S    15.85999966  14.93000031  49.06000137
C    18.38000107  14.06999969  48.11999893
C    17.17000008  14.61999989  47.91999817
C    16.86000061  15.18000031  46.66999817
C    17.79999924  15.31000042  45.66999817
C    19.07999992  14.80999947  45.90000153
C    20.20999908  15.06999969  45.02999878
C    21.50000000  14.63999939  45.38000107
C    21.70999908  13.93000031  46.55000305
C    20.65000153  13.73999977  47.41000366
C    19.37999916  14.17000008  47.11999893
C    15.50000000  15.55999947  46.53999710
C    14.78999996  15.36000061  47.72999573
C    13.40999985  15.31000042  47.75000000
C    23.05000114  13.56999969  47.02000046
H    23.39163971  14.17498779  47.85986710
H    18.52000046  13.59000015  49.09000015
H    17.61999893  15.84000015  44.73999786
H    20.06999969  15.53999996  44.06000137
H    22.39000130  14.81999969  44.79999924
H    20.88000107  13.25000000  48.36000061
H    12.94000053  14.96000099  48.66000366
H    23.72999954  13.40000057  46.18000031
H    22.88000107  12.64000034  47.56999969
S    15.95000076  12.35000038  52.31999969
C    18.63000107  11.59000015  51.52000046
C    17.29999924  11.72000027  51.24000168
C    16.87999916  11.33999920  49.98000336
C    17.73999977  10.92000008  48.95999908
C    19.09000015  10.65999985  49.33000183
C    20.03000069  10.25000000  48.34999847
C    21.35000038  10.11999989  48.73000336
C    21.87999916  10.50000000  49.95999908
C    21.00000000  11.03999996  50.87999725
C    19.60000038  11.00000000  50.63000107
C    15.52000046  11.69999981  49.73999786
C    14.93999958  12.30999947  50.90000153
C    13.57999992  12.81999969  50.94999695
C    23.34000015  10.40999985  50.24000168
H    23.61560822  10.58225441  51.28041840
H    19.09000015  11.96000004  52.43999863
H    17.29999924  10.73999977  47.97999954
H    19.78999901   9.82999992  47.37999725
H    21.97999954   9.67000008  47.95999908
H    21.48999977  11.46000004  51.76000214
H    13.12999916  13.27000046  51.84000015
H    23.65999985   9.43000031  49.87999725
H    23.87000084  11.06999969  49.54000092
S    12.32999992  11.69999981  47.35000229
C     9.63000011  12.28999996  47.94000244
C    10.95000076  12.34000015  48.29000092
C    11.42000008  12.81999969  49.55999756
C    10.51000023  13.21000004  50.45999908
C     9.13999939  13.17000008  50.15999603
C     8.27999973  13.64999962  51.13999939
C     6.98999977  13.50000000  50.94999695
C     6.42000008  13.17000008  49.68000031
C     7.26999998  12.79000092  48.66000366
C     8.69999981  12.74000072  48.86000061
C    12.86000061  12.61000061  49.79000092
C    13.47000027  11.98999977  48.62999725
C    14.75999928  11.61999893  48.62999725
C     4.96000004  13.48999977  49.36000061
H     4.59186649  13.18437862  48.38062668
H     9.30999947  11.85999966  47.00000000
H    10.75000000  13.45000076  51.49000168
H     8.75000000  14.02999973  52.04000092
H     6.38000011  13.85000038  51.77999878
H     6.94999981  12.53999901  47.64999771
H    15.14000034  11.26000023  47.67000198
H     4.85000038  14.55999947  49.59999847
H     4.25000000  13.02000046  50.05000305
