96

S    11.94000053  16.15999985  44.01000214
C     9.42000008  16.69000053  44.69999695
C    10.59000015  16.17000008  45.06999969
C    10.92000008  15.72000027  46.38999939
C     9.84000015  15.65999985  47.30999756
C     8.55000019  16.21000099  46.97999954
C     7.46999979  16.35000038  47.91999817
C     6.30000019  16.92000008  47.63000107
C     6.03999996  17.30999947  46.26999664
C     7.02000046  17.10000038  45.30000305
C     8.34999943  16.63999939  45.63000107
C    12.43000031  15.62000084  46.56999969
C    13.10999966  15.72999954  45.33000183
C    14.50000000  15.72000027  45.28999710
C     4.65999985  17.71000099  45.84000015
H     4.37030554  17.18713760  44.92852402
H     9.35999966  17.20000076  43.74000168
H    10.08999920  15.48999977  48.34999847
H     7.65999985  15.95000076  48.90999603
H     5.51000023  17.00000000  48.36000061
H     6.80999994  17.21999931  44.23999786
H    14.92000008  15.72999954  44.29000092
H     4.07000017  17.25000000  46.65000153
H     4.48000002  18.78999901  45.77000046
S    15.62999916  15.05000019  49.09999847
C    18.20999908  14.60000038  48.40000153
C    16.98999977  15.10000038  47.98999786
C    16.61999893  15.44000053  46.68000031
C    17.59000015  15.34999943  45.70999908
C    18.92000008  14.92000008  46.09000397
C    19.95000076  15.14999962  45.19000244
C    21.27000046  14.85999966  45.61999893
C    21.53000069  14.26000023  46.86000061
C    20.52000046  14.14000034  47.80000305
C    19.22999954  14.47000027  47.43999863
C    15.21999931  15.57999992  46.46999741
C    14.51000023  15.44999981  47.76000214
C    13.15999985  15.44000053  47.78999710
C    22.96999931  13.94999981  47.22999954
H    23.32401848  14.48464203  48.11143494
H    18.43000031  14.34999943  49.43999863
H    17.36999893  15.57999992  44.66999817
H    19.73999977  15.52999973  44.20000076
H    22.10000038  15.25000000  45.04000092
H    20.69999886  13.90999985  48.85000229
H    12.55000019  15.36000061  48.68000031
H    23.61000061  14.11999893  46.36000061
H    23.03999901  12.86999893  47.38999939
S    11.82999992  16.29999924  51.04000092
C     9.13000011  16.69999886  51.73999786
C    10.40999985  16.23999977  52.09000015
C    10.75000000  15.85999966  53.40999985
C     9.70000076  15.78999996  54.34000015
C     8.38000011  16.04999924  53.99000168
C     7.36999989  16.03999901  55.00999832
C     6.06999969  16.29999924  54.65000153
C     5.75999975  16.72999954  53.36999893
C     6.74000025  16.97000122  52.42000198
C     8.09000015  16.61999893  52.70999908
C    12.22000027  15.62000084  53.52000427
C    12.90999985  15.85000038  52.36000061
C    14.27000046  15.71000004  52.29000092
C     4.32999992  17.20999908  53.06000137
H     3.90859032  16.64109612  52.23122787
H     8.93999958  17.23999977  50.81999969
H     9.92999935  15.65000057  55.40000153
H     7.71000004  15.65000057  55.96000290
H     5.31000042  16.31000137  55.43000031
H     6.44000006  17.23999977  51.40999603
H    14.80999947  15.88000107  51.37000275
H     3.75999975  17.20000076  53.99000168
H     4.40000010  18.26000023  52.76000214
S    15.34999943  14.86999989  56.05999756
C    18.01000023  14.60000038  55.33000183
C    16.75000000  15.06000042  54.99000168
C    16.36999893  15.43000031  53.67000198
C    17.38999939  15.64000034  52.76000214
C    18.76000023  15.32999992  53.00000000
C    19.85000038  15.26999950  52.04000092
C    21.04999924  14.65999985  52.43999863
C    21.28999901  14.19000053  53.75000000
C    20.22000122  14.18000031  54.61000061
C    19.02000046  14.81999969  54.33000183
C    14.96000099  15.48999977  53.48999786
C    14.29999924  15.14000034  54.62999725
C    12.93000031  15.15999985  54.68999863
C    22.72999954  13.76000023  54.10999680
H    23.18965340  14.36329556  54.89284515
H    18.30000114  14.14000034  56.26999664
H    17.13000107  16.02000046  51.77999878
H    19.76000023  15.76000023  51.07999802
H    21.90000153  14.72000027  51.77000046
H    20.29000092  13.67000008  55.56999969
H    12.30999947  14.89999962  55.54000092
H    23.36000061  13.66000080  53.22000122
H    22.79000092  12.71999931  54.45000076
