96

S    12.20999908  16.56999969  44.51000214
C     9.53999996  17.11000061  45.27999878
C    10.77999973  16.61000061  45.58000183
C    11.05999947  16.00000000  46.83000183
C    10.01000023  15.98000050  47.80000305
C     8.71000004  16.61000061  47.56000137
C     7.51999950  16.48999977  48.40000153
C     6.26999950  16.84999847  48.00000000
C     6.10000038  17.36999893  46.72000122
C     7.18999958  17.57999992  45.84999847
C     8.48999977  17.13999939  46.25000000
C    12.46000099  15.62999916  46.97000122
C    13.22000027  15.95000076  45.80999756
C    14.60999966  15.93000031  45.79999924
C     4.67000008  17.65999985  46.22000122
H     4.38455105  17.03914833  45.37078857
H     9.40999985  17.30999947  44.22000122
H    10.07999992  15.19000053  48.54000092
H     7.68000031  16.04999924  49.38000107
H     5.40000010  16.82999992  48.63999939
H     7.11000013  17.89999962  44.80999756
H    15.21000004  16.20000076  44.93999863
H     3.89999986  17.46999931  46.97000122
H     4.59000015  18.73999977  46.03000259
S    15.77000046  14.91000080  49.47999954
C    18.46999931  14.45000076  48.61999893
C    17.15999985  14.85999966  48.36000061
C    16.79999924  15.27999973  47.08000183
C    17.88999939  15.47000027  46.12999725
C    19.18000031  15.03999901  46.36000061
C    20.15000153  15.21999931  45.37000275
C    21.40999985  14.80999947  45.56999969
C    21.80000114  14.19000053  46.79000092
C    20.86000061  13.96999931  47.83000183
C    19.48999977  14.46000004  47.60000229
C    15.34999943  15.52999973  46.91999817
C    14.61999989  15.19000053  48.09999847
C    13.23999977  15.25000000  48.09000015
C    23.21000099  13.97999954  46.98999786
H    23.54438019  14.27076244  47.98586273
H    18.79999924  14.06999969  49.58000183
H    17.57999992  16.00000000  45.24000168
H    19.78999901  15.64000034  44.43999863
H    22.21999931  15.14000034  44.93999863
H    21.18000031  13.63000011  48.81000137
H    12.68000031  15.18000031  49.02999878
H    23.65999985  14.55000019  46.17000198
H    23.36999893  12.92000008  46.75000000
S    11.68000031  16.59000015  51.22000122
C     9.04999924  17.11000061  51.91999817
C    10.31000042  16.72000122  52.29000092
C    10.65999985  16.31999969  53.60000229
C     9.72999954  16.15999985  54.54000092
C     8.38999939  16.63999939  54.34000015
C     7.30000019  16.46999931  55.21999741
C     6.02999973  16.87999916  54.86999893
C     5.78000021  17.43000031  53.56999969
C     6.83000040  17.71999931  52.69000244
C     8.13000011  17.21999931  53.01000214
C    12.13999939  16.09000015  53.70999908
C    12.81000042  16.14999962  52.48000336
C    14.19999981  16.23999977  52.51999664
C     4.33999968  17.56000137  53.04999924
H     4.08326960  17.02388573  52.13634109
H     8.85000038  17.38999939  50.89000320
H     9.89999962  15.88999939  55.59000015
H     7.53000021  15.98999977  56.17000198
H     5.19000006  16.54000092  55.47000122
H     6.57000017  18.15999985  51.73999786
H    14.75000000  16.39999962  51.59000015
H     3.56999993  17.42000008  53.81999969
H     4.32000017  18.63000107  52.78999710
S    15.36000061  15.24000072  56.04999924
C    18.02999878  14.84000015  55.27999878
C    16.77000046  15.34999943  54.99000168
C    16.39999962  15.77000046  53.73000336
C    17.38000107  15.86999989  52.74000168
C    18.71999931  15.55999947  53.02000046
C    19.73999977  15.62999916  52.02000046
C    20.95999908  15.14000034  52.30999756
C    21.38000107  14.57999992  53.54999924
C    20.36999893  14.47999954  54.54000092
C    19.05999947  14.93999958  54.27999878
C    14.96999931  15.98000050  53.63999939
C    14.26000023  15.75000000  54.80999756
C    12.89000034  15.82999992  54.86999893
C    22.78000069  14.22999954  53.77999878
H    23.02174187  14.62105370  54.76829910
H    18.25000000  14.22000027  56.14999771
H    17.10000038  16.10999870  51.72000122
H    19.51000023  16.21999931  51.12999725
H    21.78999901  15.31000042  51.63999939
H    20.59000015  13.96999931  55.47999954
H    12.44999981  15.82999992  55.86000061
H    23.54000092  14.55000019  53.06000137
H    22.86999893  13.15000057  53.64999771
