96

S    12.41000080  16.87999916  44.43000031
C     9.72000027  17.20999908  45.02999878
C    10.97000027  16.80999947  45.43000031
C    11.25000000  16.25000000  46.70000076
C    10.18000031  16.20000076  47.65999603
C     8.85000038  16.56999969  47.22000122
C     7.75000000  16.39999962  48.11000061
C     6.44999981  16.82999992  47.70000076
C     6.34000015  17.53000069  46.43000031
C     7.39000034  17.56000137  45.52000046
C     8.65999985  17.13000107  45.87999725
C    12.69000053  16.01000023  46.86999893
C    13.45999908  16.20000076  45.66999817
C    14.88000011  16.13999939  45.68999863
C     4.90000010  18.06999969  46.00000000
H     4.46291351  17.46217728  45.20778275
H     9.51000023  17.47999954  43.99000168
H    10.24000072  15.76000023  48.64999771
H     7.94000053  15.95999908  49.09000015
H     5.60999966  16.61000061  48.34999847
H     7.30000019  18.15000153  44.61000061
H    15.47000027  16.57999992  44.88999939
H     4.28999996  18.07999992  46.90999985
H     4.92000008  19.11000061  45.65999985
S    15.93999958  14.91000080  49.23999786
C    18.68000031  14.55000019  48.48999786
C    17.38000107  15.00000000  48.20000076
C    17.01000023  15.52000046  46.93000031
C    17.95999908  15.59000015  45.90000153
C    19.29999924  15.17000008  46.18999863
C    20.42000008  15.31000042  45.31999969
C    21.65999985  14.84000015  45.66999817
C    21.91999817  14.27999973  46.97000122
C    20.92000008  14.26000023  47.88000107
C    19.64999962  14.61999989  47.50000000
C    15.57999992  15.71000004  46.81000137
C    14.85999966  15.44000053  47.95999908
C    13.45000076  15.62999916  48.01000214
C    23.36999893  13.99000072  47.39999771
H    23.67334938  14.62491417  48.23244095
H    18.95000076  14.01000023  49.38999939
H    17.63000107  15.97000027  44.93000031
H    20.22999954  15.73999977  44.34000015
H    22.57999802  14.85000038  45.07999802
H    21.11999893  13.78999901  48.83999634
H    12.94999981  15.24000072  48.88999939
H    23.98999977  14.17000008  46.51000214
H    23.45999908  12.90999985  47.61000061
S    12.27000046  17.02000046  51.00000000
C     9.53999996  17.28999901  51.75000000
C    10.88000107  17.05999947  52.09999847
C    11.19999981  16.68000031  53.47000122
C    10.14000034  16.61000061  54.38000107
C     8.80000019  16.92000008  54.06999969
C     7.73999977  16.82999992  55.02999878
C     6.43000031  17.09000015  54.65000153
C     6.21999979  17.65999985  53.40999985
C     7.22000027  17.71999931  52.49000168
C     8.52999973  17.27000046  52.70999908
C    12.61000061  16.34000015  53.57999802
C    13.31999969  16.54999924  52.31999969
C    14.68000031  16.34000015  52.22999954
C     4.84000015  18.13999939  53.04999924
H     4.48299599  17.48427773  52.25584793
H     9.22000027  17.38000107  50.72000122
H    10.39999962  16.31999969  55.38999939
H     7.90000010  16.34000015  55.98999786
H     5.59000015  17.00000000  55.34000015
H     6.97000027  18.02000046  51.46999741
H    15.21000004  16.55999947  51.30000305
H     4.15999985  18.12999916  53.90999603
H     4.88999987  19.18000031  52.71999741
S    15.80000019  15.42000008  55.94999695
C    18.40999985  14.80999947  55.11000061
C    17.14999962  15.29000092  54.82999802
C    16.86000061  15.65999985  53.50000000
C    17.86000061  15.69000053  52.51999664
C    19.11000061  15.21000004  52.84000015
C    20.12000084  15.25000000  51.81000137
C    21.45000076  15.01000023  52.15999985
C    21.73999977  14.52999973  53.47000122
C    20.76000023  14.23999977  54.34999847
C    19.43000031  14.68000031  54.09999847
C    15.39000034  15.88000107  53.34999847
C    14.68000031  15.80000019  54.59000015
C    13.26000023  15.93999958  54.68999863
C    23.25000000  14.37999916  53.89999771
H    23.57433128  15.00105858  54.73497772
H    18.54999924  14.50000000  56.13999939
H    17.67000008  16.03000069  51.51000214
H    19.85000038  15.70000076  50.86999893
H    22.27999878  15.21999931  51.49000168
H    20.96999931  14.09000015  55.40000153
H    12.67000008  15.75000000  55.58000183
H    24.00000000  14.48999977  53.11000061
H    23.35000038  13.32999992  54.20000076
