96

S    12.10999966  15.80999947  43.95000076
C     9.44000053  16.25000000  44.73999786
C    10.72999954  15.80000019  44.99000168
C    11.07999992  15.39000034  46.30000305
C    10.14000034  15.36999893  47.34000397
C     8.80000019  15.78999996  47.06999969
C     7.76000023  15.80999947  47.95999908
C     6.50000000  16.23999977  47.63000107
C     6.23000050  16.69999886  46.35000229
C     7.23999977  16.82999992  45.47000122
C     8.50000000  16.31999969  45.77000046
C    12.50000000  15.25000000  46.52999878
C    13.21000004  15.42000008  45.30000305
C    14.65000057  15.43000031  45.25000000
C     4.80999994  17.05999947  45.97000122
H     4.47346592  16.46405411  45.12165451
H     9.19999981  16.73999977  43.80000305
H    10.42000008  14.98000050  48.31999969
H     7.90999985  15.44000053  48.97999573
H     5.66999960  16.01000023  48.29999924
H     7.23000002  17.45000076  44.56999969
H    15.24000072  15.67999935  44.38000107
H     4.03999996  16.95999908  46.73999786
H     4.84000015  18.13999939  45.77000046
S    15.81999969  14.94999981  48.99000168
C    18.45999908  14.63999939  48.27999878
C    17.15999985  14.94999981  47.90000153
C    16.76000023  15.26000023  46.56000137
C    17.71999931  15.26999950  45.61000061
C    19.05999947  14.89999962  45.89000320
C    20.06999969  14.80000019  44.93999863
C    21.35000038  14.48999977  45.26000214
C    21.73000145  14.19000053  46.56000137
C    20.78000069  14.26000023  47.55000305
C    19.43000031  14.56999969  47.22000122
C    15.32999992  15.34999943  46.43000031
C    14.67000008  15.11999989  47.63000107
C    13.30000019  15.03999901  47.68000031
C    23.05000114  13.76999950  46.90999985
H    23.43029976  14.26784706  47.80197525
H    18.68999863  14.27000046  49.27999878
H    17.45000076  15.22999954  44.54999924
H    19.78000069  15.11000061  43.94000244
H    21.97000122  14.50000000  44.36000061
H    20.93000031  13.90999985  48.56999969
H    12.89000034  15.00000000  48.68999863
H    23.75999832  13.94999981  46.09000397
H    23.09000015  12.69000053  47.11999893
S    16.04999924  11.92999935  51.95000076
C    18.63000107  11.82999992  50.97999954
C    17.30999947  11.54999924  50.77999878
C    16.81999969  11.11999989  49.55999756
C    17.77000046  10.78999996  48.61999893
C    19.19000053  10.86999989  48.83999634
C    20.15999985  10.21000004  48.06000137
C    21.50000000  10.21000004  48.47000122
C    21.88999939  10.84000015  49.65999985
C    20.90999985  11.38000011  50.47000122
C    19.57999992  11.46000004  50.06000137
C    15.39000034  11.17000008  49.52000046
C    14.84000015  11.65999985  50.70000076
C    13.55999947  12.18999958  50.77999878
C    23.22000122  10.50000000  50.31000137
H    23.46502113  11.08104706  51.19907379
H    19.04000092  12.05999947  51.95999908
H    17.42000008  10.17000008  47.80000305
H    19.78000069   9.75000000  47.15000153
H    22.18000031   9.55999947  47.93000031
H    21.18000031  11.77999973  51.45000076
H    13.17999935  12.64000034  51.69000244
H    23.23999786   9.43000031  50.56000137
H    24.04999924  10.57000065  49.59999847
S    11.87999916  10.88999939  47.39999771
C     9.32999992  11.78999996  48.18000031
C    10.67999935  11.77000046  48.36999893
C    11.23000050  12.28999996  49.59000015
C    10.40999985  12.79000092  50.61999893
C     9.01000023  12.92000008  50.45000076
C     8.10999966  13.40000057  51.46999741
C     6.75000000  13.45000076  51.17000198
C     6.28999996  13.01000023  49.92000198
C     7.13999987  12.46999931  49.00000000
C     8.52999973  12.46999931  49.13999939
C    12.69999981  12.01000023  49.62999725
C    13.17000008  11.33999920  48.50000000
C    14.52999973  10.93999958  48.43999863
C     4.86000013  13.35000038  49.45000076
H     4.65130186  13.03335476  48.42810059
H     8.90999985  11.23000050  47.35000229
H    10.80999947  12.89000034  51.63000107
H     8.50000000  13.76000023  52.42000198
H     6.19000006  14.11999893  51.81999969
H     6.78999996  11.98999977  48.09000015
H    14.98999977  10.46000004  47.56999969
H     4.72000027  14.42999935  49.43999863
H     4.19999981  12.88000011  50.19000244
