96

S    12.18000031  16.69999886  44.13000107
C     9.48000050  16.88999939  44.78000259
C    10.76000023  16.50000000  45.13000107
C    11.03000069  16.10000038  46.45999908
C    10.08999920  16.17000008  47.41000366
C     8.73999977  16.51000023  47.04999924
C     7.63000011  16.34000015  47.91999817
C     6.42000008  16.93000031  47.67000198
C     6.19999981  17.39999962  46.31999969
C     7.14999962  17.38999939  45.38999939
C     8.50000000  17.05999947  45.77999878
C    12.50000000  15.93999958  46.63999939
C    13.27000046  16.23999977  45.45999908
C    14.65000057  16.18000031  45.40999985
C     4.80999994  17.89999962  45.87999725
H     4.48727560  17.48192596  44.92649841
H     9.22000027  17.14999962  43.75999832
H    10.17000008  15.52999973  48.29000092
H     7.83999968  15.98999977  48.92000198
H     5.63000011  17.05000114  48.40000153
H     6.98999977  17.71999931  44.36999893
H    15.21000004  16.51000023  44.54000092
H     4.13999987  17.52000046  46.66999817
H     4.76000023  18.98999977  45.86999893
S    15.60999966  15.18000031  49.13000107
C    18.30000114  14.60999966  48.39000320
C    17.05000114  15.00000000  48.02000046
C    16.72999954  15.52999973  46.70999908
C    17.79999924  15.52999973  45.75000000
C    19.11999893  15.17000008  46.11000061
C    20.19000053  15.19000053  45.18000031
C    21.47000122  14.92000008  45.63000107
C    21.67000008  14.40000057  46.86000061
C    20.72999954  14.40999985  47.83000183
C    19.37000084  14.78000069  47.49000168
C    15.31999969  15.84000015  46.55000305
C    14.59000015  15.62000084  47.77999878
C    13.23999977  15.62999916  47.77000046
C    23.11000061  14.04000092  47.30999756
H    23.34232140  14.51916409  48.26106644
H    18.54999924  14.21000004  49.36999893
H    17.61999893  15.73999977  44.69999695
H    19.97999954  15.48999977  44.15999985
H    22.30999947  14.98999977  44.93999863
H    20.88999939  14.32000065  48.89999771
H    12.71000004  15.26999950  48.64999771
H    23.82999802  14.35999966  46.55000305
H    23.22000122  12.97000027  47.54000092
S    15.70000076  12.60000038  52.43999863
C    18.38000107  12.02000046  51.69000244
C    16.98999977  12.00000000  51.38000107
C    16.50000000  11.56000042  50.13000107
C    17.38000107  11.18000031  49.10999680
C    18.78000069  11.18999958  49.31999969
C    19.70000076  10.69000053  48.40000153
C    20.98999977  10.36999893  48.76999664
C    21.54999924  10.80999947  49.99000168
C    20.66999817  11.46000004  50.87999725
C    19.27999878  11.54000092  50.65000153
C    15.13000011  11.84000015  49.99000168
C    14.53999996  12.30999947  51.20999908
C    13.22999954  12.69000053  51.18999863
C    22.98999977  10.26999950  50.31999969
H    23.30362511  10.57649708  51.31789780
H    18.72999954  12.51000023  52.60000229
H    16.92000008  10.70000076  48.23999786
H    19.44000053  10.34999943  47.39999771
H    21.57999992   9.71000004  48.15000153
H    20.93000031  11.61999893  51.91999817
H    12.79999924  13.04999924  52.12999725
H    22.88000107   9.18000031  50.34000015
H    23.64999962  10.60999966  49.51000214
S    11.87999916  11.85999966  47.50999832
C     9.26000023  12.60000038  48.22999954
C    10.57999992  12.46000099  48.55999756
C    10.95000076  12.75000000  49.92000198
C    10.05000019  13.19000053  50.86000061
C     8.73000050  13.38000107  50.50000000
C     7.75000000  13.94999981  51.43000031
C     6.44000006  14.09000015  51.14999771
C     6.03999996  13.73999977  49.84000397
C     6.94999981  13.28999996  48.88000107
C     8.36000061  13.12000084  49.16999817
C    12.46000099  12.55000019  50.05000305
C    13.01000023  12.06999969  48.82999802
C    14.34999943  11.75000000  48.81000137
C     4.76000023  14.26000023  49.34000015
H     4.33928108  13.56363678  48.61462021
H     8.80999947  12.50000000  47.25000000
H    10.38000011  13.48000050  51.84999847
H     8.26000023  14.32000065  52.30999756
H     5.86000013  14.75999928  51.77999878
H     6.61999989  13.28999996  47.84000015
H    14.85000038  11.31000042  47.95000076
H     5.00999975  15.21999931  48.87000275
H     3.95000005  14.35999966  50.06999969
