96

S    11.97999954  16.09000015  43.92000198
C     9.30000019  16.45000076  44.68000031
C    10.57999992  16.10999870  45.00999832
C    10.95000076  15.82999992  46.36000061
C     9.98999977  15.71000004  47.34000397
C     8.67000008  16.11999893  47.15999985
C     7.69999981  16.07999992  48.20999908
C     6.47000027  16.59000015  47.93000031
C     6.07999992  16.86000061  46.58000183
C     6.96000004  16.79999924  45.56999969
C     8.30000019  16.42000008  45.77999878
C    12.38000011  15.80000019  46.52999878
C    13.07000065  15.95000076  45.34000015
C    14.48999977  16.01000023  45.22999573
C     4.61000013  17.15999985  46.24000168
H     4.28091192  16.79590225  45.26674271
H     9.01000023  16.84999847  43.70999908
H    10.29000092  15.25000000  48.27999878
H     7.88999987  15.72999954  49.22000122
H     5.66999960  16.86000061  48.61999893
H     6.61999989  17.00000000  44.54999924
H    15.05000019  16.15999985  44.31000137
H     4.00999975  16.77000046  47.05999756
H     4.44000006  18.23999977  46.36000061
S    15.47999954  14.84000015  48.92000198
C    18.18000031  14.56999969  48.39000320
C    16.94000053  14.93000031  47.94000244
C    16.63999939  15.48999977  46.66999817
C    17.68000031  15.59999943  45.77000046
C    19.01000023  15.22999954  46.11999893
C    20.17000008  15.29999924  45.26000214
C    21.38000107  14.85000038  45.63999939
C    21.63000107  14.34999943  46.91999817
C    20.56999969  14.34000015  47.77000046
C    19.22999954  14.72000027  47.44999695
C    15.17000008  15.73999977  46.43000031
C    14.42000008  15.32999992  47.60000229
C    13.05999947  15.42000008  47.69000244
C    23.00000000  13.73000050  47.30999756
H    23.52581024  14.29732418  48.07796097
H    18.29000092  14.11999893  49.36999893
H    17.52000046  15.69000053  44.69999695
H    20.13999939  15.67999935  44.23999786
H    22.21999931  14.85999966  44.94999695
H    20.62000084  13.93000031  48.77999878
H    12.61000061  15.03999901  48.60000229
H    23.59000015  13.61999989  46.38999939
H    22.79999924  12.69999981  47.63000107
S    11.72000027  16.11999893  50.96000290
C     9.15000057  16.61999893  51.66999817
C    10.36000061  16.13999939  52.00000000
C    10.72999954  15.85999966  53.34999847
C     9.70000076  15.81999969  54.36000061
C     8.34999943  16.10999870  53.93000031
C     7.30000019  16.11999893  54.93000031
C     6.03999996  16.54999924  54.55999756
C     5.78999996  17.02000046  53.22000122
C     6.80999994  17.17000008  52.29000092
C     8.06999969  16.69000053  52.63999939
C    12.15999985  15.77999973  53.55999756
C    12.90999985  15.85000038  52.29000092
C    14.27000046  15.71000004  52.22000122
C     4.34999990  17.26000023  52.78999710
H     4.09204865  16.62228584  51.94448853
H     8.85000038  17.05000114  50.72000122
H     9.92000008  15.71000004  55.40999985
H     7.48000050  15.90000057  55.97999954
H     5.19000006  16.53000069  55.24000168
H     6.76000023  17.61000061  51.30000305
H    14.73999977  15.72999954  51.24000168
H     3.56999993  17.06999969  53.54999924
H     4.32999992  18.30999947  52.49000168
S    15.52000046  15.10000038  55.86000061
C    18.09000015  14.45000076  54.99000168
C    16.82999992  14.91000080  54.72999954
C    16.46999931  15.48999977  53.50999832
C    17.45000076  15.71000004  52.50999832
C    18.72999954  15.15999985  52.76000214
C    19.76000023  15.15999985  51.72000122
C    21.05999947  14.73000050  51.97999954
C    21.34000015  14.19999981  53.27000046
C    20.35000038  14.09999943  54.16999817
C    19.04999924  14.56999969  53.97999573
C    15.03000069  15.64000034  53.37999725
C    14.34999943  15.47000027  54.56999969
C    12.92000008  15.44999981  54.68999863
C    22.73999977  13.81999969  53.64999771
H    23.00549507  14.24335670  54.61869812
H    18.35000038  14.32000065  56.04000092
H    17.18000031  16.18999863  51.56999969
H    19.44000053  15.53999996  50.75000000
H    21.77000046  14.68999958  51.16000366
H    20.55000114  13.60000038  55.12000275
H    12.42000008  15.26000023  55.63000107
H    23.36000061  14.01999950  52.77000046
H    22.76000023  12.72999954  53.66000366
