96

S    12.28999996  16.51000023  44.27999878
C     9.70000076  17.00000000  45.02999878
C    10.93000031  16.52000046  45.34999847
C    11.25000000  16.09000015  46.70000076
C    10.15999985  15.93000031  47.64999771
C     8.86999989  16.45000076  47.29999924
C     7.79999971  16.31000137  48.22999954
C     6.56000042  16.76000023  47.87000275
C     6.30999994  17.32999992  46.55000305
C     7.35000038  17.47999954  45.66999817
C     8.63000011  17.01000023  45.97999954
C    12.64999962  16.05999947  46.84999847
C    13.40000057  16.21000099  45.61000061
C    14.78000069  16.25000000  45.56999969
C     4.94000006  17.71999931  46.10000229
H     4.53794241  16.95178223  45.43947601
H     9.50000000  17.34000015  44.02000046
H    10.25000000  15.48999977  48.63999939
H     7.94000053  15.97000027  49.26000214
H     5.84000015  16.80999947  48.68000031
H     7.28999996  17.93000031  44.68000031
H    15.36999893  16.36000061  44.66999817
H     4.30000019  17.75000000  46.98999786
H     4.77999973  18.68999863  45.61000061
S    15.98000050  15.27999973  49.27999878
C    18.60000038  14.81999969  48.48999786
C    17.35999870  15.42000008  48.27000046
C    16.92000008  15.93000031  47.00000000
C    17.86000061  16.02000046  45.98999786
C    19.14999962  15.52000046  46.23000336
C    20.13999939  15.52999973  45.19000244
C    21.45999908  15.10000038  45.47000122
C    21.80000114  14.63999939  46.75000000
C    20.86999893  14.51000023  47.70000076
C    19.52999878  14.86999989  47.45999908
C    15.44999981  15.98000050  46.77000046
C    14.78000069  15.67999935  47.98999786
C    13.38000107  15.86999989  48.04000092
C    23.23999786  14.45000076  47.06999969
H    23.48786163  14.95280743  48.00479889
H    18.89000130  14.25000000  49.36999893
H    17.52000046  16.13999939  44.95999908
H    19.88000107  16.10999870  44.31000137
H    22.18000031  15.06000042  44.65999985
H    21.14999962  14.29999924  48.73000336
H    12.84000015  15.75000000  48.96999741
H    23.84000015  14.96999931  46.31000137
H    23.35000038  13.35999966  47.04999924
S    11.84999943  16.84999847  51.14999771
C     9.11999989  17.06999969  51.81000137
C    10.40999985  16.65999985  52.12999725
C    10.70000076  16.03999901  53.40999985
C     9.57999992  15.82999992  54.27000046
C     8.27999973  16.27000046  54.02999878
C     7.22000027  16.21999931  54.95999908
C     5.98000002  16.79999924  54.66999817
C     5.75999975  17.34000015  53.36999893
C     6.76000023  17.40999985  52.45999908
C     8.06999969  16.90000153  52.75000000
C    12.13000107  15.77000046  53.61000061
C    12.81999969  16.21999931  52.49000168
C    14.22999954  16.17000008  52.43999863
C     4.30999994  17.59000015  52.95999908
H     3.94998002  16.89072990  52.20534134
H     8.89000034  17.57999992  50.87999725
H     9.81999969  15.42000008  55.25000000
H     7.44999981  15.85999966  55.96000290
H     5.23000002  16.69000053  55.45999908
H     6.61000013  17.71000099  51.42000198
H    14.57999992  16.39000130  51.43000031
H     3.75999975  17.53999901  53.90999603
H     4.25000000  18.63999939  52.64999771
S    15.21999931  15.06000042  56.05999756
C    18.01000023  15.05000019  55.43000031
C    16.72999954  15.31999969  55.06000137
C    16.43000031  15.73999977  53.75000000
C    17.50000000  15.80999947  52.83000183
C    18.84000015  15.53999996  53.13000107
C    19.93999863  15.39000034  52.15999985
C    21.14000130  15.05000019  52.51999664
C    21.40999985  14.55000019  53.81999969
C    20.38000107  14.55000019  54.78000259
C    19.06999969  15.10000038  54.45999908
C    14.96999931  15.90999985  53.59000397
C    14.17000008  15.54999924  54.72999954
C    12.81000042  15.32999992  54.72999954
C    22.84000015  14.19000053  54.19000244
H    23.18020058  14.53020000  55.16807556
H    18.25000000  14.68000031  56.42000198
H    17.20999908  16.01000023  51.79999924
H    19.70000076  15.69000053  51.13999939
H    21.96000099  15.10000038  51.79999924
H    20.59999847  14.11999893  55.76000214
H    12.30000019  15.01000023  55.63999939
H    23.54999924  14.45000076  53.40000153
H    22.79000092  13.09000015  54.27000046
