96

S    12.10000038  16.38000107  43.99000168
C     9.38000011  16.54999924  44.79999924
C    10.69000053  16.18999863  45.01999664
C    11.05000019  15.65999985  46.30000305
C    10.05000019  15.46000004  47.28000259
C     8.71999931  15.84000015  47.01000214
C     7.69000006  15.84000015  48.00000000
C     6.34999990  16.20000076  47.71999741
C     6.00000000  16.72000122  46.37000275
C     7.04999971  16.93000031  45.45999908
C     8.36000061  16.36000061  45.70999908
C    12.50000000  15.48999977  46.44000244
C    13.22000027  15.88000107  45.34000015
C    14.60999966  15.92000008  45.34999847
C     4.57999992  17.15999985  46.06999969
H     4.20610046  16.65667534  45.17839432
H     9.11000061  17.05999947  43.87000275
H    10.25000000  15.14999962  48.30999756
H     8.03999996  15.62000084  49.01000214
H     5.65000010  16.26000023  48.54000092
H     6.89000034  17.29999924  44.43999863
H    15.15999985  16.11999893  44.43000031
H     3.96000004  17.02000046  46.97000122
H     4.51000023  18.23999977  45.84999847
S    15.57000065  14.80999947  49.02000046
C    18.30999947  14.60000038  48.34000015
C    16.97000122  14.88000011  48.01000214
C    16.68000031  15.29000092  46.68000031
C    17.65999985  15.39000034  45.68000031
C    18.96999931  15.08999920  46.00000000
C    20.13000107  15.22999954  45.11000061
C    21.38000107  14.73999977  45.51000214
C    21.61999893  14.19000053  46.79000092
C    20.56999969  14.15999985  47.70999908
C    19.34000015  14.63999939  47.34000397
C    15.29000092  15.62999916  46.53999710
C    14.48999977  15.26999950  47.69000244
C    13.15000057  15.15999985  47.63000107
C    23.02999878  13.89000034  47.11999893
H    23.26055336  14.19740486  48.14002228
H    18.53999901  14.34000015  49.38000107
H    17.40999985  15.71000004  44.68000031
H    20.00000000  15.52000046  44.06999969
H    22.22999954  14.93999958  44.86000061
H    20.59000015  13.78999901  48.73000336
H    12.56000042  15.01000023  48.52000427
H    23.54000092  14.60999966  46.46999741
H    23.35000038  12.84999943  46.95999908
S    11.43000031  16.45000076  50.65000153
C     8.78999996  16.73999977  51.39999771
C    10.03000069  16.34000015  51.73999786
C    10.39999962  15.72000027  52.95999908
C     9.47000027  15.64000034  53.95999908
C     8.14000034  16.02000046  53.69999695
C     7.18999958  16.02000046  54.77000427
C     5.89999962  16.42000008  54.59000015
C     5.51999998  16.98999977  53.26000214
C     6.47000027  17.12000084  52.30999756
C     7.77999973  16.55999947  52.42000198
C    11.80999947  15.62000084  53.15000153
C    12.56000042  16.09000015  51.98999786
C    13.93000031  16.21999931  51.88999939
C     4.01999998  17.31999969  53.01000214
H     3.67037582  16.75914383  52.14322281
H     8.52000046  17.13999939  50.43000031
H     9.78999996  15.38000011  54.97000122
H     7.39000034  15.52000046  55.72000122
H     5.23000002  16.45000076  55.44000244
H     6.28000021  17.56000137  51.33999634
H    14.46000004  16.46000099  50.97000122
H     3.44000006  17.06999969  53.90999603
H     3.86999989  18.38999939  52.85999680
S    15.03000069  14.72000027  55.45000076
C    17.65999985  14.55999947  54.84000397
C    16.42000008  15.06000042  54.45000076
C    16.11999893  15.70000076  53.22000122
C    17.20000076  15.80000019  52.36000061
C    18.51000023  15.34999943  52.65999603
C    19.59000015  15.52999973  51.76000214
C    20.86000061  15.13000011  52.11000061
C    21.09000015  14.52000046  53.36000061
C    20.10999870  14.32999992  54.22999954
C    18.75000000  14.72000027  53.99000168
C    14.65000057  15.85999966  53.06000137
C    13.96000004  15.42000008  54.22999954
C    12.53999901  15.36000061  54.29999924
C    22.53999901  14.14000034  53.82999802
H    22.68812180  14.50677776  54.84569168
H    17.71999931  13.99000072  55.76000214
H    17.06999969  16.22999954  51.36000061
H    19.48999977  16.03999901  50.80999756
H    21.70999908  15.38000011  51.47999573
H    20.28000069  13.89000034  55.20999908
H    12.02000046  15.13000011  55.22999573
H    23.26000023  14.60000038  53.15000153
H    22.60999870  13.03999996  53.89999771
