96

S    12.50000000  16.39999962  44.16999817
C     9.85000038  17.02999878  44.91000366
C    11.13999939  16.63999939  45.30000305
C    11.49000072  16.11999893  46.59999847
C    10.55999947  16.13999939  47.57999802
C     9.26999950  16.60000038  47.28000259
C     8.27999973  16.72999954  48.34999847
C     6.98000002  16.92000008  48.02999878
C     6.60000038  17.27000046  46.66999817
C     7.49000025  17.27000046  45.65999985
C     8.84000015  16.90999985  45.90999985
C    12.88000011  15.77000046  46.69000244
C    13.52000046  15.98999977  45.47000122
C    14.92000008  16.01000023  45.41999817
C     5.21000004  17.69000053  46.33999634
H     4.77217293  17.05444527  45.57027054
H     9.59000015  17.50000000  43.95999908
H    10.75000000  15.81999969  48.60000229
H     8.60999966  16.73999977  49.38999939
H     6.32000017  17.11000061  48.87000275
H     7.26000023  17.60000038  44.65000153
H    15.44000053  16.18999863  44.48999786
H     4.61000013  17.53999901  47.23999786
H     5.13999987  18.72999954  46.00999832
S    16.02000046  15.40999985  49.20000076
C    18.79999924  15.21000004  48.48999786
C    17.51000023  15.46000004  48.18999863
C    17.07999992  15.62000084  46.77000046
C    18.04000092  15.59000015  45.79999924
C    19.40000153  15.38000011  46.05999756
C    20.40999985  15.19000053  45.06000137
C    21.71999931  15.03000069  45.28999710
C    22.11000061  14.92000008  46.60999680
C    21.11000061  14.88000011  47.63999939
C    19.77000046  15.15999985  47.47000122
C    15.67999935  15.81999969  46.63999939
C    14.96000099  15.67999935  47.81999969
C    13.55999947  15.65000057  47.93000031
C    23.45000076  14.45000076  46.97999954
H    23.67991257  14.63680363  48.02897263
H    19.22000122  15.11999989  49.48999786
H    17.80999947  15.59000015  44.72999954
H    19.97999954  15.39999962  44.08000183
H    22.43999863  14.96000099  44.47999954
H    21.42000008  14.55999947  48.62999725
H    13.01000023  15.81999969  48.85000229
H    24.14999962  15.01000023  46.35000229
H    23.52999878  13.36999989  46.77000046
S    15.81999969  12.84999943  52.04999924
C    18.45999908  12.20999908  51.30000305
C    17.13000107  12.30999947  50.96000290
C    16.67000008  11.94000053  49.65000153
C    17.54999924  11.61999893  48.64999771
C    18.93000031  11.56000042  48.88999939
C    19.95000076  11.05000019  47.98999786
C    21.28000069  10.92000008  48.34999847
C    21.73999977  11.23000050  49.59999847
C    20.81999969  11.69999981  50.54999924
C    19.37999916  11.85999966  50.27000046
C    15.27999973  12.23999977  49.55999756
C    14.72000027  12.72999954  50.75000000
C    13.30999947  13.02999973  50.89000320
C    23.08000183  10.72999954  50.00999832
H    23.34819794  11.14948750  50.97963715
H    18.92000008  12.46000099  52.25999832
H    17.19000053  11.18999958  47.70999908
H    19.63999939  10.65999985  47.02000046
H    21.96000099  10.38000011  47.70000076
H    21.05999947  11.84999943  51.59999847
H    12.94999981  13.43999958  51.83000183
H    23.02000046   9.63000011  50.01999664
H    23.75999832  11.02000046  49.20999908
S    11.85999966  12.02999973  47.36999893
C     9.22999954  12.71000004  48.16999817
C    10.59000015  12.69000053  48.43000031
C    11.05000019  13.17000008  49.68000031
C    10.14000034  13.60000038  50.66999817
C     8.73000050  13.55000019  50.45999908
C     7.86000013  14.06000042  51.44000244
C     6.51999998  14.11999893  51.11000061
C     6.05000019  13.73999977  49.81999969
C     6.91999960  13.31999969  48.81000137
C     8.30999947  13.21000004  49.09000015
C    12.46000099  12.89999962  49.79000092
C    13.07000065  12.41000080  48.55999756
C    14.40000057  12.00000000  48.52000427
C     4.59999990  13.92000008  49.43000031
H     4.42890596  13.49939442  48.43908310
H     8.78999996  12.31999969  47.25999832
H    10.57000065  13.96999931  51.59999847
H     8.18000031  14.37000084  52.43000031
H     5.78999996  14.47000027  51.84000015
H     6.65000010  13.05999947  47.78999710
H    14.82999992  11.47999954  47.67000198
H     4.34999990  14.96999931  49.64000320
H     3.94000006  13.35000038  50.10000229
