96

S    12.15999985  16.13000107  44.09999847
C     9.57999992  16.79999924  44.89999771
C    10.88999939  16.36999893  45.24000168
C    11.21000099  16.04999924  46.59999847
C    10.19999981  16.03000069  47.54000092
C     8.85999966  16.54000092  47.18999863
C     7.85000038  16.79999924  48.20000076
C     6.58999968  17.30999947  47.88000107
C     6.38000011  17.61999893  46.53999710
C     7.32999992  17.43999863  45.56999969
C     8.63000011  16.94000053  45.86000061
C    12.64000034  15.86999989  46.73999786
C    13.34000015  15.90999985  45.45000076
C    14.75000000  15.80999947  45.34999847
C     4.99000025  17.92000008  46.00999832
H     4.62961864  17.12857246  45.35283279
H     9.36999989  17.15999985  43.89999771
H    10.44000053  15.77000046  48.56999969
H     8.14000034  16.52000046  49.20999908
H     5.66999960  17.15999985  48.44999695
H     7.17999983  17.77000046  44.54999924
H    15.32999992  16.02000046  44.45000076
H     4.30999994  18.04999924  46.86000061
H     5.00999975  18.86999893  45.47000122
S    16.01000023  15.01999950  49.00000000
C    18.56999969  14.78000069  48.29000092
C    17.34000015  15.11999989  47.93000031
C    16.93000031  15.38000011  46.63000107
C    17.87999916  15.36000061  45.59000015
C    19.22999954  15.05000019  45.91999817
C    20.28000069  15.06999969  44.94999695
C    21.54000092  14.65000057  45.26000214
C    21.84000015  14.22000027  46.59000015
C    20.93000031  14.40999985  47.60000229
C    19.56999969  14.72000027  47.29999924
C    15.44000053  15.52000046  46.52999878
C    14.81999969  15.36999893  47.77999878
C    13.43000031  15.62999916  47.88000107
C    23.18000031  13.96999931  46.93000031
H    23.54523277  14.59304619  47.74640656
H    18.72999954  14.39000034  49.29000092
H    17.57999992  15.57999992  44.56999969
H    20.03000069  15.42000008  43.95000076
H    22.34000015  14.60999966  44.52000046
H    21.22999954  14.09000015  48.59000397
H    12.89999962  15.39999962  48.79000092
H    23.75000000  14.21000004  46.02000427
H    23.38999939  12.92000008  47.16999817
S    11.67000008  17.09000015  50.86000061
C     9.07999992  17.48999977  51.65000153
C    10.27999973  17.02999878  51.97000122
C    10.65999985  16.63999939  53.29999924
C     9.57999992  16.40999985  54.13999939
C     8.22000027  16.72000122  53.79000092
C     7.16000032  16.63999939  54.72999954
C     5.88999987  16.98999977  54.34000015
C     5.60999966  17.65999985  53.06999969
C     6.67000008  17.88999939  52.25999832
C     7.95000029  17.34000015  52.51999664
C    12.10999966  16.46000099  53.40999985
C    12.76000023  16.63999939  52.15999985
C    14.14000034  16.39999962  51.97999954
C     4.19000006  18.12000084  52.72999573
H     3.83729839  17.49219131  51.91173172
H     9.01000023  17.97999954  50.68000031
H     9.72000027  16.13999939  55.18000031
H     7.34000015  16.27000046  55.73999786
H     5.00000000  16.87999916  54.95999908
H     6.61000013  18.36000061  51.27999878
H    14.63999939  16.47999954  51.02000427
H     3.48000002  18.02999878  53.56999969
H     4.11999989  19.18000031  52.45999908
S    15.32999992  15.48999977  55.54999924
C    17.98999977  15.01999950  54.82999802
C    16.72999954  15.47999954  54.50000000
C    16.38000107  15.90000057  53.18000031
C    17.36999893  15.93999958  52.15999985
C    18.63999939  15.48999977  52.47000122
C    19.68000031  15.55999947  51.56999969
C    20.97999954  15.15999985  51.84999847
C    21.27000046  14.73000050  53.18999863
C    20.27000046  14.63000107  54.06999969
C    18.95000076  15.01999950  53.79000092
C    14.93000031  16.13999939  53.08000183
C    14.25000000  15.92000008  54.31999969
C    12.81999969  16.00000000  54.47000122
C    22.67999840  14.47999954  53.67000198
H    23.02488518  15.06703568  54.52120209
H    18.17000008  14.57999992  55.79999924
H    17.19000053  16.31999969  51.14999771
H    19.54000092  15.98000050  50.56999969
H    21.80000114  15.44000053  51.18999863
H    20.48000145  14.37999916  55.10000229
H    12.31999969  15.72000027  55.40000153
H    23.21000099  14.68000031  52.72999573
H    22.85000038  13.42000008  53.92000198
