96

S    11.89000034  16.50000000  44.23999786
C     9.30000019  16.68000031  45.13999939
C    10.55999947  16.27000046  45.34999847
C    10.95999908  15.80000019  46.65000153
C    10.03999901  15.62000084  47.62000275
C     8.67999935  15.88999939  47.38999939
C     7.75000000  15.84000015  48.43999863
C     6.34999990  16.03999901  48.15999985
C     5.98999977  16.69000053  46.90000153
C     6.98000002  16.97000122  46.02000427
C     8.34000015  16.46000099  46.17000198
C    12.36999989  15.97000027  46.79999924
C    13.02999973  16.42000008  45.59000015
C    14.42000008  16.52000046  45.52000046
C     4.63999987  17.22999954  46.59000015
H     4.18585157  16.62214088  45.80746841
H     8.93999958  17.18000031  44.25000000
H    10.31999969  15.44999981  48.66000366
H     7.96999979  15.44999981  49.43000031
H     5.65999985  16.03999901  49.00000000
H     6.80000019  17.46999931  45.07999802
H    14.89999962  16.59000015  44.54000092
H     4.07000017  17.23999977  47.51999664
H     4.81999969  18.27999878  46.30000305
S    15.75000000  15.47000027  49.19000244
C    18.32999992  15.07999992  48.29999924
C    17.05000114  15.47999954  48.01000214
C    16.63999939  15.90000057  46.66999817
C    17.61999893  15.86999989  45.68000031
C    18.92000008  15.39999962  45.97999954
C    19.96999931  15.59000015  45.01999664
C    21.22999954  15.18000031  45.37000275
C    21.59000015  14.65000057  46.59999847
C    20.62000084  14.65000057  47.56999969
C    19.27000046  15.03000069  47.31999969
C    15.21000004  16.18999863  46.63000107
C    14.52999973  15.93999958  47.85999680
C    13.15999985  15.95000076  47.91999817
C    23.02000046  14.29999924  46.90000153
H    23.32941246  14.63051033  47.89152908
H    18.51000023  14.86999989  49.34999847
H    17.50000000  16.21000099  44.65000153
H    19.93999863  16.21999931  44.13999939
H    22.04000092  15.22999954  44.65000153
H    20.85000038  14.52999973  48.62999725
H    12.69999981  15.62000084  48.85000229
H    23.74000168  14.63999939  46.13999939
H    23.11000061  13.21000004  46.93999863
S    11.50000000  16.60000038  51.09000397
C     8.89999962  17.19000053  51.88000107
C    10.17000008  16.67000008  52.14000320
C    10.44000053  16.17000008  53.50000000
C     9.44999981  16.26000023  54.45999908
C     8.14999962  16.77999878  54.20000076
C     7.05999947  16.79999924  55.12000275
C     5.73999977  17.09000015  54.65999985
C     5.51999998  17.53000069  53.34999847
C     6.57999992  17.64999962  52.49000168
C     7.88999987  17.28000069  52.85999680
C    11.87999916  15.88999939  53.59000397
C    12.58999920  16.18999863  52.42000198
C    13.94999981  16.36000061  52.27000427
C     4.09999990  17.79999924  52.93000031
H     3.88961363  17.42831802  51.92715836
H     8.55000019  17.40999985  50.86999893
H     9.59999943  15.80999947  55.44000244
H     7.31999969  16.48999977  56.12999725
H     4.98000002  16.81999969  55.38000107
H     6.30000019  18.01000023  51.50000000
H    14.37000084  16.67000008  51.31999969
H     3.45999980  17.35000038  53.69999695
H     3.94000006  18.88000107  53.06000137
S    15.15999985  15.36999893  55.86000061
C    17.84000015  15.06999969  54.95999908
C    16.60000038  15.47000027  54.72000122
C    16.18999863  15.95999908  53.47000122
C    17.20000076  16.21999931  52.56000137
C    18.54999924  15.85000038  52.75000000
C    19.63000107  16.05999947  51.83000183
C    20.92000008  15.62000084  52.11000061
C    21.18000031  14.98000050  53.34999847
C    20.19000053  14.75999928  54.25000000
C    18.89000130  15.31000042  54.05000305
C    14.72000027  16.07999992  53.37999725
C    14.01000023  15.67000008  54.55999756
C    12.65999985  15.67000008  54.69999695
C    22.62000084  14.65999985  53.73000336
H    22.82777596  15.03256512  54.73306274
H    18.05999947  14.42999935  55.80999756
H    16.94000053  16.75000000  51.63999939
H    19.36000061  16.62999916  50.93999863
H    21.67000008  15.80999947  51.33999634
H    20.40999985  14.27000046  55.19000244
H    12.23999977  15.57999992  55.70000076
H    23.26999855  14.98000050  52.90000153
H    22.86999893  13.60000038  53.83999634
