96

S    12.35999966  16.76000023  44.26000214
C     9.61999989  17.05999947  44.82999802
C    10.88000107  16.68000031  45.20999908
C    11.26999950  16.29999924  46.53999710
C    10.25000000  16.44000053  47.45999908
C     8.92000008  16.90999985  47.22000122
C     7.90999985  16.84000015  48.18999863
C     6.65999985  17.27000046  47.85999680
C     6.37000036  17.70000076  46.56000137
C     7.36999989  17.72999954  45.59999847
C     8.64999962  17.20999908  45.87999725
C    12.67000008  16.15999985  46.76000214
C    13.35000038  16.36000061  45.59999847
C    14.70000076  16.29999924  45.50000000
C     4.92000008  18.02000046  46.17000198
H     4.50991201  17.46143150  45.32861710
H     9.43000031  17.36999893  43.81000137
H    10.44999981  16.10000038  48.47000122
H     8.19999981  16.46000099  49.16999817
H     5.86999989  17.38999939  48.60000229
H     7.13000011  17.80999947  44.54999924
H    15.11000061  16.45000076  44.50000000
H     4.30000019  17.97999954  47.08000183
H     4.88000011  19.09000015  45.93000031
S    15.78999996  15.44000053  49.15999985
C    18.48999977  14.96999931  48.40000153
C    17.25000000  15.39999962  48.09999847
C    16.88999939  15.84000015  46.77999878
C    17.92000008  15.90999985  45.79000092
C    19.19999886  15.59000015  46.11000061
C    20.22000122  15.55999947  45.13000107
C    21.53000069  15.18000031  45.45000076
C    21.84999847  14.68000031  46.75000000
C    20.81000137  14.60999966  47.70999908
C    19.48999977  15.07999992  47.43000031
C    15.44999981  15.97000027  46.62000275
C    14.75999928  15.75000000  47.84999847
C    13.35999966  15.88999939  47.93000031
C    23.26000023  14.25000000  47.29000092
H    23.45804596  14.62560654  48.29389191
H    18.82999992  14.48999977  49.31999969
H    17.67000008  16.11999893  44.75999832
H    20.00999832  15.82999992  44.09999847
H    22.34999847  15.14999962  44.75000000
H    20.95999908  14.01000023  48.61000061
H    12.81999969  15.90000057  48.87000275
H    23.98999977  14.63999939  46.56999969
H    23.40999985  13.15999985  47.28000259
S    15.62000084  12.81000042  52.25000000
C    18.35000038  12.00000000  51.70000076
C    17.02999878  12.18999958  51.26999664
C    16.56999969  11.75000000  49.98000336
C    17.50000000  11.31999969  49.10999680
C    18.86999893  11.21999931  49.48999786
C    19.84000015  10.88000107  48.52000427
C    21.17000198  10.88999939  48.80000305
C    21.57999992  11.09000015  50.13000107
C    20.62999916  11.30000019  51.11000061
C    19.27000046  11.49000072  50.79999924
C    15.15999985  12.13999939  49.73999786
C    14.50000000  12.65999985  50.93000031
C    13.17000008  13.09999943  50.86999893
C    23.03999901  10.90999985  50.45999908
H    23.25090218  10.86781979  51.52856827
H    18.70000076  12.38000011  52.65999603
H    17.20000076  11.09000015  48.09000015
H    19.45999908  10.72000027  47.50999832
H    21.88999939  10.69000053  48.00000000
H    20.89999962  11.46999931  52.15000153
H    12.68000031  13.38999939  51.79000092
H    23.31000137   9.98000050  49.94999695
H    23.65999985  11.65999985  49.93999863
S    12.00000000  12.41000080  47.08000183
C     9.25000000  12.86999893  47.72999573
C    10.60999966  12.88000011  48.08000183
C    11.02000046  13.21000004  49.43000031
C    10.11000061  13.55999947  50.41999817
C     8.75000000  13.68999958  50.01999664
C     7.71000004  14.06999969  50.97000122
C     6.39999962  14.06000042  50.59000015
C     5.98000002  13.83999920  49.29000092
C     6.94000006  13.52000046  48.36000061
C     8.31999969  13.40000057  48.64999771
C    12.42000008  13.05999947  49.65999985
C    13.12000084  12.53999901  48.53000259
C    14.47000027  12.15999985  48.54999924
C     4.61000013  14.22999954  48.83999634
H     4.23847818  13.67622185  47.97778702
H     8.93999958  12.46999931  46.77000046
H    10.43000031  13.73000050  51.44000244
H     8.02999973  14.42000008  51.95000076
H     5.78000021  14.46000004  51.39999771
H     6.60000038  13.43000031  47.32999802
H    14.94999981  11.82000065  47.63999939
H     4.42999983  15.29999924  48.72000122
H     3.91999984  14.09000015  49.68000031
