96

S    12.10000038  16.54999924  44.01000214
C     9.55999947  17.15999985  44.66999817
C    10.76000023  16.62999916  45.06999969
C    11.03000069  16.20000076  46.44000244
C     9.96999931  16.15999985  47.31999969
C     8.76000023  16.72000122  46.97000122
C     7.68000031  16.68000031  47.88000107
C     6.39999962  17.02999878  47.37999725
C     6.14000034  17.47999954  46.04999924
C     7.20000029  17.52000046  45.18000031
C     8.48999977  17.13999939  45.65000153
C    12.44999981  15.97000027  46.60999680
C    13.22999954  16.18999863  45.40000153
C    14.60000038  16.18999863  45.34999847
C     4.67000008  17.77000046  45.63999939
H     4.18202925  17.14260864  44.89410019
H     9.36999989  17.68000031  43.73000336
H     9.96999931  15.51000023  48.20000076
H     7.82999992  16.20000076  48.83999634
H     5.51000023  16.77999878  47.95000076
H     7.02000046  17.47999954  44.09999847
H    15.05000019  16.56999969  44.43999863
H     3.98000002  17.86999893  46.49000168
H     4.65999985  18.78000069  45.20000076
S    15.59999943  14.93000031  49.06000137
C    18.22999954  14.52000046  48.31999969
C    16.98999977  15.01000023  48.02000046
C    16.72000122  15.65999985  46.73999786
C    17.78000069  15.75000000  45.83000183
C    19.10000038  15.44000053  46.11999893
C    20.29000092  15.52000046  45.31999969
C    21.52000046  15.21000004  45.77000046
C    21.64999962  14.50000000  46.93000031
C    20.55000114  14.23999977  47.75000000
C    19.29999924  14.75000000  47.36000061
C    15.26000023  15.80999947  46.53999710
C    14.55999947  15.51000023  47.72999573
C    13.17000008  15.55999947  47.77999878
C    22.96999931  14.04999924  47.25999832
H    23.41539955  14.74991608  47.96698761
H    18.38999939  13.83999920  49.15000153
H    17.64999962  16.10000038  44.80999756
H    20.17999840  15.88999939  44.31000137
H    22.39000130  15.29000092  45.11000061
H    20.71000099  13.67000008  48.67000198
H    12.64000034  15.27999973  48.68000031
H    23.55999947  13.94000053  46.33999634
H    22.95999908  13.05999947  47.72999573
S    16.03000069  12.38000011  52.29999924
C    18.67000008  11.82000065  51.49000168
C    17.38999939  11.92999935  51.20999908
C    16.86000061  11.51999950  49.93000031
C    17.70000076  10.90000057  49.05000305
C    19.06999969  10.88999939  49.27000046
C    19.95000076  10.34999943  48.31999969
C    21.28999901  10.31999969  48.53000259
C    21.84999847  10.90000057  49.68999863
C    20.94000053  11.44000053  50.66999817
C    19.59000015  11.36000061  50.47000122
C    15.40999985  11.77000046  49.75000000
C    14.88000011  12.34000015  50.90000153
C    13.53000069  12.65999985  50.97000122
C    23.29999924  10.69000053  50.00999832
H    23.49689865  10.83767509  51.07184601
H    19.11999893  12.06999969  52.44999695
H    17.26000023  10.47000027  48.15000153
H    19.54000092   9.89999962  47.42000198
H    21.94000053   9.77999973  47.84999847
H    21.35000038  11.80999947  51.60999680
H    13.12000084  13.19000053  51.81999969
H    23.72999954   9.72000027  49.73999786
H    23.92999840  11.42000008  49.47999954
S    11.92000008  11.82999992  47.50000000
C     9.34000015  12.63000011  48.27000046
C    10.62999916  12.36999989  48.62999725
C    11.19999981  12.64000034  49.93000031
C    10.34999943  13.14000034  50.89000320
C     8.97000027  13.30000019  50.61000061
C     7.95000029  13.68000031  51.56000137
C     6.58999968  13.76000023  51.22000122
C     6.15999985  13.56999969  49.89999771
C     7.11000013  13.32999992  48.97999573
C     8.51000023  13.14000034  49.22999954
C    12.69000053  12.39999962  49.93999863
C    13.21000004  11.90000057  48.74000168
C    14.59000015  11.64999962  48.63999939
C     4.74000025  13.78000069  49.54000092
H     4.51769543  13.30574989  48.58409119
H     9.03999996  12.32999992  47.27000427
H    10.65000057  13.38999939  51.90999985
H     8.25000000  14.01999950  52.55000305
H     5.86999989  14.06000042  51.97999954
H     6.89000034  13.15000057  47.93000031
H    15.03000069  11.26000023  47.72999573
H     4.55999994  14.85000038  49.40999985
H     4.05999994  13.40000057  50.31999969
