96

S    12.13000107  16.32999992  44.16999817
C     9.47000027  16.48999977  44.88999939
C    10.71000004  16.13999939  45.24000168
C    11.00000000  15.67000008  46.50000000
C     9.98999977  15.59000015  47.47000122
C     8.71000004  16.06999969  47.12999725
C     7.78999996  16.45000076  48.13000107
C     6.56000042  17.02000046  47.81999969
C     6.10000038  17.14999962  46.44000244
C     7.09000015  16.88999939  45.47999954
C     8.42000008  16.43000031  45.80999756
C    12.43000031  15.64000034  46.70000076
C    13.10999966  16.04999924  45.51000214
C    14.42000008  16.20000076  45.52000046
C     4.65000010  17.28000069  46.06999969
H     4.47608232  16.99013710  45.03374100
H     9.28999996  17.00000000  43.95000076
H    10.21000004  15.40999985  48.52000427
H     8.06999969  16.35000038  49.18000031
H     5.84999990  17.18000031  48.62999725
H     6.98999977  17.02000046  44.40000153
H    14.93000031  16.43000031  44.59999847
H     4.01999998  16.61000061  46.65999985
H     4.26000023  18.27000046  46.32999802
S    15.60999966  15.14999962  49.02000046
C    18.30999947  14.85000038  48.25000000
C    17.04000092  15.25000000  47.97999954
C    16.69999886  15.73999977  46.65000153
C    17.65999985  15.76000023  45.66999817
C    18.92000008  15.29000092  45.91999817
C    19.82999992  15.21999931  44.79000092
C    21.07000160  14.63999939  45.00000000
C    21.44000053  14.25000000  46.30000305
C    20.55999947  14.21000004  47.34000397
C    19.25000000  14.78000069  47.19999695
C    15.21999931  15.93000031  46.62000275
C    14.51000023  15.54999924  47.74000168
C    13.17000008  15.27999973  47.84000015
C    22.93000031  14.01000023  46.65000153
H    23.16467285  14.24467278  47.68824768
H    18.53000069  14.42000008  49.22999954
H    17.39999962  16.02000046  44.65000153
H    19.47999954  15.62000084  43.83999634
H    21.88999939  14.78000069  44.29000092
H    20.90999985  14.07999992  48.36000061
H    12.75000000  14.96999931  48.79000092
H    23.45000076  14.68999958  45.96000290
H    23.09000015  12.94999981  46.40999603
S    16.10000038  12.72999954  52.16999817
C    18.72999954  12.10000038  51.45000076
C    17.42000008  12.20000076  51.09000397
C    16.97999954  11.92000008  49.77000427
C    17.92000008  11.56999969  48.81999969
C    19.27999878  11.36999989  49.16999817
C    20.23999977  10.76000023  48.33000183
C    21.54000092  10.60999966  48.68999863
C    22.00000000  11.03999996  49.98000336
C    21.09999847  11.59000015  50.81999969
C    19.70999908  11.72000027  50.45000076
C    15.55999947  11.98999977  49.69999695
C    14.92000008  12.38000011  50.93000031
C    13.52000046  12.58999920  50.93999863
C    23.38999939  10.57999992  50.41999817
H    23.85316467  11.17650223  51.20597839
H    19.04999924  12.31999969  52.47000122
H    17.61999893  11.21999931  47.83000183
H    19.77000046  10.44999981  47.41000366
H    22.15999985  10.01999950  48.01000214
H    21.32999802  11.84000015  51.84999847
H    13.02000046  12.88000011  51.86000061
H    23.44000053   9.50000000  50.61999893
H    24.00000000  10.57999992  49.51000214
S    12.20000076  11.73999977  47.30999756
C     9.52000046  12.36999989  48.01000214
C    10.85000038  12.20000076  48.34000015
C    11.33999920  12.63000011  49.59999847
C    10.43000031  13.09999943  50.45999908
C     9.04999924  13.20000076  50.20999908
C     8.21000004  13.78999901  51.18999863
C     6.91999960  14.02999973  50.84999847
C     6.34000015  13.61999989  49.61000061
C     7.20000029  13.03999996  48.69999695
C     8.53999996  12.88000011  48.92000198
C    12.76999950  12.43999958  49.79000092
C    13.38000107  11.95000076  48.67000198
C    14.73999977  11.64999962  48.61999893
C     4.94000006  13.96999931  49.29999924
H     4.58541536  13.38848114  48.44899750
H     9.19000053  12.10999966  47.01000214
H    10.77999973  13.30000019  51.46999741
H     8.61999989  13.96000004  52.18000031
H     6.25000000  14.63000107  51.45999908
H     6.93000031  12.67000008  47.70999908
H    15.11999989  11.26000023  47.68000031
H     4.79999971  15.05000019  49.13999939
H     4.38000011  13.63000011  50.18000031
