96

S    12.03999996  16.27000046  44.38999939
C     9.42000008  16.87000084  45.06999969
C    10.67999935  16.39999962  45.43000031
C    10.95000076  15.93000031  46.75000000
C     9.85999966  15.85999966  47.70000076
C     8.59000015  16.31000137  47.29999924
C     7.55000019  16.32999992  48.16999817
C     6.32000017  16.75000000  47.85999680
C     6.02999973  17.19000053  46.55000305
C     7.09000015  17.28000069  45.63000107
C     8.36999989  16.90000153  45.98999786
C    12.35999966  15.65999985  46.91999817
C    13.12000084  15.90000057  45.65999985
C    14.46000004  15.76000023  45.47999954
C     4.63999987  17.61999893  46.17000198
H     4.32665443  17.10990334  45.25911331
H     9.21000004  17.20999908  44.06000137
H     9.98000050  15.31999969  48.63999939
H     7.69999981  16.03000069  49.20999908
H     5.55999994  16.72000122  48.62999725
H     6.94000006  17.61999893  44.59999847
H    14.92000008  15.80999947  44.50000000
H     3.98999977  17.29999924  46.98999786
H     4.56999969  18.68999863  45.93999863
S    15.62999916  14.89999962  49.08000183
C    18.22000122  14.40999985  48.36000061
C    16.97999954  14.89999962  47.97999954
C    16.63999939  15.34999943  46.63999939
C    17.64999962  15.39000034  45.65999985
C    18.95000076  14.88000011  46.02000427
C    20.03000069  14.80000019  45.04000092
C    21.35999870  14.44000053  45.38999939
C    21.64999962  13.97999954  46.75000000
C    20.62000084  13.90999985  47.68000031
C    19.26000023  14.32999992  47.36999893
C    15.21000004  15.51000023  46.60999680
C    14.52999973  15.31000042  47.84000015
C    13.17999935  15.29000092  48.02999878
C    23.09999847  13.83999920  47.09000015
H    23.29964256  14.33566666  48.04003143
H    18.34000015  13.86000061  49.29000092
H    17.43000031  15.52999973  44.59999847
H    19.85000038  15.17000008  44.03999710
H    22.14999962  14.53999996  44.64000320
H    20.88000107  13.69999981  48.70999908
H    12.74000072  15.21999931  49.01000214
H    23.64999962  14.37999916  46.31000137
H    23.52000046  12.81999969  47.08000183
S    15.90000057  12.48999977  52.29999924
C    18.50000000  11.72999954  51.38999939
C    17.15999985  11.80999947  51.16000366
C    16.59000015  11.44999981  49.86000061
C    17.43999863  10.97000027  48.90999603
C    18.82999992  10.85999966  49.13000107
C    19.73999977  10.44000053  48.16999817
C    21.09000015  10.26999950  48.46000290
C    21.63999939  10.59000015  49.73999786
C    20.81000137  11.00999928  50.72999954
C    19.37999916  11.18999958  50.45999908
C    15.15999985  11.57999992  49.86000061
C    14.59000015  12.13000107  51.05999756
C    13.23999977  12.48000050  51.05999756
C    23.06999969  10.44000053  50.08999634
H    23.48174477  10.84452057  51.01462173
H    18.86999893  12.05000019  52.36000061
H    17.10000038  10.62999916  47.94000244
H    19.42000008  10.38000011  47.12999725
H    21.70000076   9.96000004  47.61000061
H    21.25000000  11.51000023  51.59000015
H    12.86000061  12.88000011  51.98999786
H    23.23999786   9.35999966  49.99000168
H    23.57000160  10.81999969  49.19000244
S    11.90000057  11.69000053  47.44999695
C     9.27999973  12.28000069  48.16999817
C    10.60999966  12.23999977  48.44999695
C    11.06999969  12.56999969  49.75999832
C    10.22999954  13.12000084  50.70999908
C     8.80999947  13.12000084  50.44000244
C     7.90000010  13.59000015  51.35000229
C     6.56000042  13.76999950  51.06999969
C     6.09000015  13.30000019  49.81999969
C     6.90000010  12.71999931  48.88999939
C     8.31999969  12.67000008  49.13999939
C    12.51000023  12.28999996  49.89999771
C    13.03999996  11.75000000  48.74000168
C    14.32000065  11.36000061  48.75000000
C     4.65999985  13.60999966  49.38999939
H     4.45959616  13.23066425  48.38798141
H     8.89999962  11.95000076  47.21000290
H    10.60999966  13.40000057  51.69000244
H     8.30999947  13.97999954  52.28000259
H     5.95000029  14.40000057  51.70999908
H     6.48000002  12.36999989  47.95000076
H    14.70000076  11.03999996  47.78999710
H     4.55000019  14.70999908  49.36000061
H     3.96000004  13.17000008  50.10000229
