96

S    12.28999996  16.62999916  43.89999771
C     9.68999958  16.94000053  44.62999725
C    10.90999985  16.54999924  44.95999908
C    11.21999931  16.03999901  46.18999863
C    10.24000072  16.03999901  47.18999863
C     8.94999981  16.44000053  46.88000107
C     7.86000013  16.32999992  47.80000305
C     6.65999985  16.86000061  47.52999878
C     6.37000036  17.46999931  46.25999832
C     7.37999964  17.52000046  45.33000183
C     8.64999962  16.95999908  45.56000137
C    12.64000034  15.86999989  46.43000031
C    13.35999966  16.13999939  45.24000168
C    14.78999996  16.21000099  45.27000046
C     4.90999985  17.85000038  45.93000031
H     4.53072929  17.23457909  45.11421204
H     9.47000027  17.60000038  43.80000305
H    10.44000053  15.39999962  48.04999924
H     8.10000038  15.90000057  48.76999664
H     5.80999947  16.69999886  48.18000031
H     7.05999947  17.92000008  44.36999893
H    15.32999992  16.56999969  44.40000153
H     4.18000031  17.71000099  46.73999786
H     4.88999987  18.89000130  45.58000183
S    15.80999947  15.01999950  48.90999603
C    18.34000015  14.46000004  48.22999954
C    17.17000008  14.96999931  47.83000183
C    16.86000061  15.53999996  46.53999710
C    17.93000031  15.67000008  45.68999863
C    19.14999962  15.13000011  46.00999832
C    20.19000053  15.25000000  45.13999939
C    21.51000023  14.92000008  45.50000000
C    21.73000145  14.27000046  46.77999878
C    20.69000053  14.11999893  47.70000076
C    19.40999985  14.53999996  47.30999756
C    15.44000053  15.82999992  46.42000198
C    14.68000031  15.44000053  47.57999802
C    13.27000046  15.57000065  47.57999802
C    23.22000122  14.07999992  47.19999695
H    23.37845039  14.43134308  48.21958160
H    18.34000015  14.26000023  49.29999924
H    17.70000076  15.97000027  44.65999985
H    19.86999893  15.75000000  44.22999954
H    22.40999985  15.17000008  44.93999863
H    20.94000053  13.88000011  48.73000336
H    12.69000053  15.38000011  48.47999954
H    23.81000137  14.60999966  46.44000244
H    23.45000076  13.00000000  47.22000122
S    11.59000015  16.62999916  50.63000107
C     9.00000000  17.28999901  51.38000107
C    10.24000072  16.73999977  51.69000244
C    10.54999924  16.39000130  53.06999969
C     9.61000061  16.54999924  54.05000305
C     8.28999996  16.94000053  53.68000031
C     7.30000019  16.95999908  54.65000153
C     6.09000015  17.56000137  54.50000000
C     5.73000002  17.94999886  53.15000153
C     6.65999985  17.81999969  52.16999817
C     8.01000023  17.38000107  52.41000366
C    12.00000000  16.27000046  53.20000076
C    12.67000008  16.32999992  51.98999786
C    14.09000015  16.21999931  51.90000153
C     4.30999994  18.04999924  52.78999710
H     4.01682854  17.40645218  51.96054077
H     8.80000019  17.65999985  50.37000275
H     9.73999977  16.38000107  55.12000275
H     7.60999966  16.62999916  55.63999939
H     5.36000013  17.63000107  55.30000305
H     6.32000017  17.88999939  51.13999939
H    14.47999954  16.05999947  50.90000153
H     3.75999975  17.77000046  53.68999863
H     4.15000010  19.10000038  52.50999832
S    15.14000034  16.11999893  55.72999954
C    17.81999969  15.54999924  55.22999573
C    16.55999947  15.77999973  54.72000122
C    16.25000000  15.88000107  53.29000092
C    17.30999947  15.73999977  52.39999771
C    18.56999969  15.39000034  52.88000107
C    19.62000084  15.14000034  51.98999786
C    20.82999992  14.67000008  52.45999908
C    21.05999947  14.44000053  53.83999634
C    20.06999969  14.70000076  54.75000000
C    18.79999924  15.26000023  54.31000137
C    14.80000019  16.13999939  53.09000015
C    14.11000061  16.13000107  54.31000137
C    12.71999931  16.18999863  54.40000153
C    22.39000130  14.00000000  54.31000137
H    22.76787376  14.65593052  55.09426498
H    17.97000122  15.39000034  56.29000092
H    17.19000053  15.88999939  51.32999802
H    19.38999939  15.26999950  50.93000031
H    21.65999985  14.52999973  51.77000046
H    20.29999924  14.56999969  55.79999924
H    12.17000008  16.28000069  55.33000183
H    23.09000015  13.94000053  53.47000122
H    22.32999992  12.94999981  54.65000153
