96

S    12.50000000  15.88000107  44.05000305
C     9.86999989  16.61000061  44.97000122
C    11.07999992  15.98000050  45.17000198
C    11.44999981  15.62999916  46.55000305
C    10.43000031  15.65000057  47.48000336
C     9.10000038  16.13999939  47.22999954
C     8.02999973  15.90000057  48.20999908
C     6.86999989  16.46999931  47.94000244
C     6.51999998  17.10000038  46.63999939
C     7.51999950  17.27000046  45.70000076
C     8.85000038  16.63999939  45.91999817
C    12.92000008  15.53999996  46.63999939
C    13.60000038  15.70000076  45.40999985
C    15.00000000  15.59999943  45.33000183
C     5.09999990  17.38999939  46.19999695
H     4.79872608  16.79445839  45.33821487
H     9.61999989  17.02999878  44.00000000
H    10.51000023  15.10000038  48.41999817
H     8.31999969  15.46000004  49.15999985
H     6.10000038  16.47999954  48.69999695
H     7.18999958  17.67000008  44.73999786
H    15.47000027  15.88999939  44.38999939
H     4.36999989  17.12000084  46.97000122
H     5.05000019  18.46999931  46.00999832
S    16.07999992  14.73000050  49.05000305
C    18.71999931  14.30999947  48.30999756
C    17.39999962  14.70999908  47.95999908
C    17.04000092  15.00000000  46.59000015
C    18.04999924  14.94999981  45.61000061
C    19.40000153  14.60999966  45.98999786
C    20.39999962  14.63000107  45.00000000
C    21.73999977  14.22999954  45.30000305
C    22.04000092  13.81999969  46.65999985
C    21.05999947  13.89000034  47.63999939
C    19.75000000  14.37000084  47.36000061
C    15.67000008  15.26999950  46.43000031
C    15.00000000  15.14999962  47.70999908
C    13.59000015  15.21000004  47.77999878
C    23.42000008  13.45000076  47.11999893
H    23.63403702  14.13491726  47.94047165
H    18.93000031  13.94000053  49.31000137
H    17.73999977  15.05000019  44.56999969
H    20.10999870  14.82999992  43.96999741
H    22.42000198  14.09999943  44.45999908
H    21.14000130  13.67000008  48.69999695
H    13.07000065  15.03000069  48.72000122
H    24.13000107  13.52000046  46.27999878
H    23.47999954  12.44999981  47.57999802
S    16.02000046  12.43000031  52.38999939
C    18.64999962  11.78999996  51.60999680
C    17.28999901  11.84000015  51.25999832
C    16.82999992  11.43000031  50.00999832
C    17.65999985  11.02000046  49.03999710
C    19.02000046  10.73999977  49.40000153
C    19.96999931  10.29999924  48.47000122
C    21.37000084  10.29999924  48.67000198
C    21.84999847  10.62000084  49.93999863
C    20.95999908  11.10000038  50.97999954
C    19.55000114  11.13999939  50.61999893
C    15.34000015  11.65999985  49.92000198
C    14.78000069  12.15000057  51.10000229
C    13.40000057  12.55000019  51.19999695
C    23.36000061  10.52000046  50.28999710
H    23.67840576  10.93746471  51.24521637
H    18.96000099  12.05000019  52.62000275
H    17.32999992  10.88999939  48.01000214
H    19.48999977  10.05000019  47.52999878
H    21.91999817   9.86999989  47.84999847
H    21.32999802  11.63000011  51.84999847
H    12.98999977  13.05999947  52.06999969
H    23.59999847   9.44999981  50.21999741
H    23.94000053  11.03000069  49.51000214
S    12.03999996  11.85999966  47.54000092
C     9.34000015  12.20999908  48.20000076
C    10.69000053  12.13999939  48.55999756
C    11.17000008  12.48999977  49.88999939
C    10.29000092  12.89999962  50.90000153
C     8.92000008  12.86999893  50.56999969
C     7.90999985  13.42000008  51.42000198
C     6.63000011  13.67000008  51.06999969
C     6.21999979  13.38999939  49.75999832
C     7.09999990  12.79999924  48.93000031
C     8.43999958  12.56999969  49.23999786
C    12.63000011  12.38000011  50.04000092
C    13.20000076  12.02000046  48.83999634
C    14.56999969  11.64999962  48.75000000
C     4.85000038  13.82999992  49.34000015
H     4.57782984  13.52991486  48.32808304
H     8.96000004  11.92000008  47.22000122
H    10.62999916  13.22999954  51.88000107
H     8.22000027  13.45999908  52.45999908
H     5.98999977  13.96999931  51.88999939
H     6.78999996  12.64999962  47.90000153
H    15.11999989  11.28999901  47.88999939
H     4.72000027  14.91000080  49.48999786
H     4.13999987  13.38000107  50.05000305
