96

S    12.36999989  15.88000107  44.33000183
C     9.70000076  16.31000137  45.00999832
C    10.93999958  15.77000046  45.35999680
C    11.21999931  15.32999992  46.69000244
C    10.11999989  15.31999969  47.56000137
C     8.84000015  15.90999985  47.21000290
C     7.72000027  15.95999908  48.06999969
C     6.48999977  16.54999924  47.72999573
C     6.32000017  17.13000107  46.45000076
C     7.40999985  17.04000092  45.56000137
C     8.69000053  16.45000076  45.97000122
C    12.69999981  15.17000008  46.88000107
C    13.43000031  15.46000004  45.70000076
C    14.78000069  15.55999947  45.65000153
C     4.92999983  17.68000031  45.96000290
H     4.56673193  17.02885818  45.16492462
H     9.73999977  16.90000153  44.09999847
H    10.14000034  14.80999947  48.50999832
H     7.86000013  15.48999977  49.03999710
H     5.69999981  16.61999893  48.47000122
H     7.31999969  17.30999947  44.51000214
H    15.40999985  15.55999947  44.75999832
H     4.19000006  17.63000107  46.77000046
H     5.00000000  18.71000099  45.59999847
S    15.95000076  15.01999950  49.36000061
C    18.60000038  14.65000057  48.54999924
C    17.34000015  14.89999962  48.23999786
C    16.95999908  15.15999985  46.90999985
C    17.88999939  15.21000004  45.97999954
C    19.22999954  14.96000099  46.18999863
C    20.15000153  14.85000038  45.14999771
C    21.42000008  14.55999947  45.48999786
C    21.90000153  14.42999935  46.84000015
C    20.98999977  14.50000000  47.88000107
C    19.63999939  14.65000057  47.52999878
C    15.48999977  15.27999973  46.83000183
C    14.81999969  15.13000011  48.02000046
C    13.42000008  15.06999969  48.06999969
C    23.39999962  14.51000023  47.16999817
H    23.63781357  14.54497242  48.23316193
H    18.94000053  14.40000057  49.54999924
H    17.56000137  15.27999973  44.93999863
H    19.78000069  14.80999947  44.13000107
H    22.20000076  14.55000019  44.73999786
H    21.21999931  14.27999973  48.92000198
H    12.90999985  14.80000019  48.99000168
H    23.88000107  15.36999893  46.70000076
H    23.81999969  13.60999966  46.70999908
S    15.85999966  12.76000023  52.41000366
C    18.57999992  12.15000057  51.68000031
C    17.23999977  12.23999977  51.38999939
C    16.72999954  11.87000084  50.08999634
C    17.67000008  11.38000011  49.15000153
C    18.98999977  11.09000015  49.52000046
C    19.89999962  10.48999977  48.61999893
C    21.22999954  10.32999992  48.92000198
C    21.73999977  10.75000000  50.18000031
C    20.86999893  11.25000000  51.16000366
C    19.52000046  11.51000023  50.81999969
C    15.31999969  12.00000000  49.88999939
C    14.70999908  12.46999931  51.04000092
C    13.32999992  12.64000034  51.16000366
C    23.21000099  10.52999973  50.52999878
H    23.42774582  10.92794991  51.52112198
H    18.89000130  12.63000011  52.61000061
H    17.23999977  11.07999992  48.20000076
H    19.52000046  10.40999985  47.60000229
H    21.84999847   9.77000046  48.22000122
H    21.19999886  11.51000023  52.15999985
H    12.89000034  12.75000000  52.15000153
H    23.31999969   9.43000031  50.54000092
H    23.88000107  10.86999989  49.73999786
S    11.84999943  11.54999924  47.60000229
C     9.15999985  11.96000004  48.47000122
C    10.52999973  11.94000053  48.75999832
C    11.05999947  12.39999962  49.95999908
C    10.18000031  12.96000004  50.87999725
C     8.73000050  12.97999954  50.70000076
C     7.82000017  13.56999969  51.62000275
C     6.43000031  13.59000015  51.27999878
C     5.96000004  13.15999985  49.98000336
C     6.85999966  12.55000019  49.10999680
C     8.27999973  12.50000000  49.41999817
C    12.56999969  12.41000080  50.02999878
C    13.12000084  11.82999992  48.88999939
C    14.51000023  11.59999943  48.81000137
C     4.51999998  13.50000000  49.45000076
H     4.34247446  12.96032333  48.51976776
H     8.71000004  11.69999981  47.51999664
H    10.59000015  13.53000069  51.70999908
H     8.14999962  14.00000000  52.56000137
H     5.69000006  14.07999992  51.88999939
H     6.46000004  12.28999996  48.13000107
H    14.96999931  11.17000008  47.91999817
H     4.36999989  14.57999992  49.31000137
H     3.81000018  13.17999935  50.21999741
