96

S    11.92999935  16.46999931  44.36999893
C     9.38000011  16.56999969  45.13999939
C    10.62999916  16.10999870  45.40999985
C    10.98999977  15.57999992  46.70000076
C    10.07999992  15.53999996  47.71999741
C     8.78000069  16.03999901  47.43999863
C     7.73000002  16.02000046  48.41999817
C     6.51000023  16.54999924  48.20999908
C     6.17000008  17.13000107  46.93999863
C     7.17999983  17.13000107  45.94999695
C     8.46000004  16.57999992  46.13999939
C    12.41000080  15.51000023  46.81999969
C    13.12999916  15.92000008  45.63999939
C    14.47999954  15.90000057  45.52999878
C     4.76999998  17.65999985  46.63999939
H     4.28798294  17.03826904  45.88554001
H     9.25000000  16.95999908  44.13999939
H    10.39000034  15.15999985  48.68999863
H     7.92999983  15.48999977  49.34999847
H     5.88000011  16.44000053  49.08000183
H     6.90999985  17.56000137  44.99000168
H    14.93000031  16.13000107  44.56999969
H     4.18000031  17.57999992  47.56000137
H     4.81999969  18.70000076  46.31000137
S    15.55999947  14.93999958  49.22999954
C    18.22999954  14.78999996  48.64999771
C    16.95999908  15.14000034  48.26000214
C    16.69999886  15.65000057  46.90000153
C    17.75000000  15.85000038  46.02000427
C    19.06999969  15.39999962  46.39999771
C    20.13999939  15.31999969  45.48999786
C    21.35999870  14.80999947  45.84999847
C    21.59000015  14.37999916  47.19999695
C    20.52999878  14.30999947  48.06999969
C    19.25000000  14.88000011  47.77000046
C    15.29000092  15.62999916  46.68000031
C    14.53999996  15.29000092  47.84000015
C    13.12999916  15.13000011  47.91999817
C    22.98999977  14.00000000  47.63000107
H    23.36084747  14.51078987  48.51863098
H    18.39999962  14.19999981  49.54000092
H    17.45000076  16.03999901  44.99000168
H    20.02000046  15.65999985  44.47000122
H    22.18000031  14.70999908  45.13999939
H    20.66999817  13.99000072  49.09999847
H    12.74000072  14.73999977  48.86000061
H    23.75999832  14.28999996  46.90000153
H    23.00000000  12.90999985  47.65999603
S    11.36999989  16.34000015  50.86999893
C     8.73999977  16.92000008  51.62000275
C     9.94000053  16.39000130  51.91999817
C    10.26000023  15.92000008  53.20999908
C     9.27999973  15.72000027  54.15000153
C     8.01999950  16.18999863  53.92000198
C     6.98999977  16.27000046  54.97000122
C     5.73000002  16.67000008  54.68999863
C     5.44000053  17.20000076  53.40000153
C     6.43000031  17.43000031  52.51999664
C     7.72000027  16.80999947  52.63000107
C    11.67000008  15.77000046  53.43000031
C    12.46999931  16.01000023  52.28000259
C    13.78000069  16.11999893  52.31999969
C     4.07999992  17.79999924  53.09000015
H     3.63966846  17.23695374  52.26708603
H     8.59000015  17.64000130  50.81999969
H     9.52999973  15.36000061  55.13999939
H     7.27999973  15.93999958  55.97000122
H     5.07000017  16.80999947  55.54000092
H     6.21999979  18.04000092  51.65000153
H    14.34999943  16.52000046  51.47999573
H     3.42000008  17.71000099  53.95999908
H     4.23999977  18.82999992  52.74000168
S    14.84000015  15.25000000  55.98999786
C    17.51000023  14.78000069  55.31999969
C    16.25000000  15.34000015  55.00000000
C    15.90000057  15.77999973  53.67000198
C    16.90999985  15.85000038  52.71999741
C    18.22000122  15.44999981  53.09000015
C    19.22000122  15.71000004  52.14000320
C    20.48999977  15.14999962  52.34000397
C    20.76000023  14.52000046  53.61000061
C    19.85999870  14.40999985  54.56999969
C    18.51000023  14.78999996  54.29999924
C    14.46000004  15.76000023  53.44999695
C    13.73000050  15.54999924  54.61999893
C    12.38999939  15.64000034  54.61999893
C    22.15999985  14.01000023  54.00000000
H    22.61369133  14.64516926  54.76080322
H    17.67000008  14.26000023  56.25999832
H    16.62999916  16.28999901  51.76000214
H    18.96000099  16.31999969  51.27999878
H    21.34000015  15.34999943  51.70000076
H    20.17999840  14.01999950  55.52999878
H    11.84000015  15.62999916  55.56999969
H    22.79999924  13.68999958  53.15999985
H    21.83000183  13.10999966  54.52000046
