96

S    11.89000034  16.68000031  44.29999924
C     9.31999969  17.10000038  45.22999573
C    10.54999924  16.73999977  45.47999954
C    10.93000031  16.28999901  46.81999969
C     9.92999935  16.06999969  47.74000168
C     8.57999992  16.36000061  47.45999908
C     7.46000004  16.10999870  48.34000015
C     6.15999985  16.45000076  47.95999908
C     5.92000008  17.13000107  46.81000137
C     6.98000002  17.38999939  45.96000290
C     8.31999969  16.98999977  46.27999878
C    12.36999989  16.20000076  46.93000031
C    12.97000027  16.45000076  45.63999939
C    14.37000084  16.46999931  45.58000183
C     4.51000023  17.51000023  46.44000244
H     4.17381668  16.83763313  45.65069580
H     9.01000023  17.51000023  44.27000046
H    10.18000031  15.70000076  48.73000336
H     7.68000031  15.71000004  49.33000183
H     5.33999968  16.23999977  48.62999725
H     6.84000015  17.80999947  44.97000122
H    14.86999989  16.76000023  44.65999985
H     3.81999993  17.52000046  47.29999924
H     4.59000015  18.52000046  46.03000259
S    15.57000065  15.07999992  49.09999847
C    18.19000053  14.67000008  48.27999878
C    16.93000031  15.21000004  48.02000046
C    16.55999947  15.80000019  46.79000092
C    17.56000137  15.93000031  45.81999969
C    18.88000107  15.48999977  46.06999969
C    19.96999931  15.73999977  45.18000031
C    21.27000046  15.43000031  45.54000092
C    21.56999969  14.73000050  46.77000046
C    20.48999977  14.42000008  47.62000275
C    19.19999886  14.88000011  47.32999802
C    15.14000034  15.98000050  46.65999985
C    14.42000008  15.52999973  47.84000015
C    13.07999992  15.60999966  47.95999908
C    23.02000046  14.26000023  47.09000015
H    23.37851524  14.72606850  48.00779343
H    18.47999954  14.01000023  49.09999847
H    17.34000015  16.15999985  44.77000427
H    19.75000000  16.20000076  44.22000122
H    22.03000069  15.57000065  44.78000259
H    20.59000015  13.96999931  48.60000229
H    12.48999977  15.01999950  48.64999771
H    23.74000168  14.37999916  46.26999664
H    22.90999985  13.17000008  47.22999954
S    11.44999981  16.76000023  50.84000015
C     8.82999992  16.84000015  51.63000107
C    10.06000042  16.46000099  51.86000061
C    10.47999954  15.98999977  53.22999954
C     9.42000008  15.85000038  54.15999985
C     8.13000011  16.29999924  53.87000275
C     7.09000015  16.18999863  54.84000397
C     5.84999990  16.65999985  54.55999756
C     5.65999985  17.40999985  53.34000015
C     6.65000010  17.64999962  52.47000122
C     7.88000011  16.90999985  52.62000275
C    11.92000008  15.88999939  53.34999847
C    12.56000042  16.39999962  52.21000290
C    13.93000031  16.56999969  52.16999817
C     4.23999977  17.61999893  52.83000183
H     4.00724411  16.97992134  51.97898865
H     8.56999969  17.56000137  50.86999893
H     9.61000061  15.29000092  55.07999802
H     7.23999977  15.59000015  55.72999954
H     5.05999994  16.36000061  55.25000000
H     6.57000017  18.30000114  51.59999847
H    14.40000057  16.97000122  51.26999664
H     3.44000006  17.34000015  53.52000427
H     4.11000013  18.65999985  52.50999832
S    15.11999989  15.11999989  55.68999863
C    17.75000000  14.92000008  54.82999802
C    16.51000023  15.39000034  54.59999847
C    16.18999863  15.92000008  53.34000015
C    17.10000038  16.07999992  52.28000259
C    18.44000053  15.67999935  52.52999878
C    19.45999908  15.60999966  51.53999710
C    20.72999954  15.29999924  51.88000107
C    21.02000046  14.81999969  53.22999954
C    20.00999832  14.78999996  54.16999817
C    18.70000076  15.17000008  53.83999634
C    14.72000027  16.11999893  53.23999786
C    14.01000023  15.71000004  54.40000153
C    12.68000031  15.57000065  54.48999786
C    22.37999916  14.27999973  53.75999832
H    22.63219643  14.73395348  54.71834183
H    18.01000023  14.32999992  55.70000076
H    16.87000084  16.51000023  51.30000305
H    19.27000046  15.81999969  50.48999786
H    21.47999954  15.36999893  51.11000061
H    20.20000076  14.42000008  55.17000198
H    12.25000000  15.10000038  55.37000275
H    23.18000031  14.42000008  53.02999878
H    22.25000000  13.22000027  54.02999878
