96

S    12.35000038  16.61000061  44.36999893
C     9.75000000  17.22999954  45.20000076
C    10.95000076  16.61000061  45.48999786
C    11.25000000  15.98999977  46.79999924
C    10.26999950  15.95999908  47.76000214
C     9.02999973  16.63999939  47.54000092
C     7.90000010  16.36000061  48.40000153
C     6.61000013  16.82999992  48.18999863
C     6.34999990  17.45000076  46.95999908
C     7.39000034  17.64000130  46.03000259
C     8.78000069  17.28000069  46.25000000
C    12.71000004  15.77000046  46.90999985
C    13.43999958  16.10000038  45.75000000
C    14.78999996  15.98999977  45.70999908
C     4.90000010  17.69000053  46.49000168
H     4.59290123  17.04584312  45.66607666
H     9.56999969  17.64999962  44.22000122
H    10.39999962  15.21000004  48.54999924
H     8.18000031  15.76000023  49.26000214
H     5.78999996  16.64999962  48.87000275
H     7.09999990  17.89999962  45.01999664
H    15.26999950  16.11999893  44.73999786
H     4.28999996  17.56000137  47.39999771
H     4.79999971  18.72999954  46.13999939
S    15.98999977  14.70000076  49.20999908
C    18.71000099  14.53999996  48.30999756
C    17.38000107  14.93999958  48.11000061
C    16.97999954  15.40999985  46.86000061
C    17.86000061  15.53999996  45.87999725
C    19.23999977  15.08999920  46.06999969
C    20.28000069  15.19000053  45.10000229
C    21.53000069  14.68000031  45.37000275
C    21.96000099  14.34999943  46.68000031
C    21.04999924  14.23999977  47.63999939
C    19.67000008  14.50000000  47.29000092
C    15.52000046  15.53999996  46.79999924
C    14.84000015  15.26000023  48.00000000
C    13.45999908  15.31999969  48.09000015
C    23.38000107  14.19999981  47.02999878
H    23.62252808  14.64939022  47.99297714
H    18.97999954  14.22000027  49.31000137
H    17.53000069  15.92000008  44.92000198
H    20.03000069  15.55999947  44.10999680
H    22.30999947  14.78000069  44.61999893
H    21.42000008  14.19000053  48.66000366
H    12.98999977  15.00000000  49.01000214
H    23.85000038  14.65000057  46.14999771
H    23.59999847  13.12000084  47.05999756
S    11.78999996  16.35000038  50.91999817
C     9.19000053  16.95999908  51.70000076
C    10.44999981  16.54999924  52.05999756
C    10.82999992  16.10999870  53.31999969
C     9.89000034  16.13999939  54.29000092
C     8.56000042  16.50000000  54.02999878
C     7.59999990  16.35000038  55.06000137
C     6.26999950  16.65999985  54.77000427
C     5.92999983  16.95999908  53.43999863
C     6.80000019  17.05999947  52.42000198
C     8.15999985  16.87000084  52.70000076
C    12.25000000  15.72999954  53.40000153
C    12.94000053  15.84000015  52.18999863
C    14.34000015  15.75000000  52.18000031
C     4.48000002  17.20999908  53.08000183
H     4.13169575  16.86169434  52.10765076
H     9.02999973  17.42000008  50.72999954
H    10.11999989  15.65000057  55.22999573
H     8.01999950  16.03999901  56.00999832
H     5.49000025  16.51000023  55.52000046
H     6.60000038  17.27000046  51.37000275
H    14.82999992  16.01000023  51.25000000
H     3.75000000  16.69000053  53.70999908
H     4.28999996  18.29000092  53.18000031
S    15.44999981  14.78000069  55.79999924
C    18.01000023  14.32000065  55.02999878
C    16.79999924  14.91000080  54.73999786
C    16.45000076  15.32999992  53.47999954
C    17.38999939  15.31999969  52.51999664
C    18.71000099  14.93000031  52.77000046
C    19.73999977  15.11999989  51.84999847
C    21.04000092  14.65000057  52.05999756
C    21.30000114  14.01000023  53.33000183
C    20.36000061  13.96000004  54.29999924
C    19.02000046  14.34000015  54.05000305
C    15.01999950  15.51000023  53.36999893
C    14.27000046  15.26999950  54.55999756
C    12.86999893  15.29000092  54.55999756
C    22.76000023  13.71000099  53.64999771
H    23.22453308  14.38178635  54.37181091
H    18.30999947  13.96999931  56.00999832
H    17.05000114  15.67000008  51.55000305
H    19.51000023  15.67999935  50.93999863
H    21.77000046  14.91000080  51.29000092
H    20.69000053  13.81999969  55.31999969
H    12.23999977  14.98000050  55.38999939
H    23.36000061  13.75000000  52.72999573
H    22.82999992  12.74000072  54.15000153
