96

S    12.28000069  16.61999893  44.09999847
C     9.65999985  16.98999977  44.86999893
C    10.95999908  16.65999985  45.24000168
C    11.26999950  16.29999924  46.58000183
C    10.25000000  16.31999969  47.48000336
C     8.89999962  16.67000008  47.25000000
C     7.90000010  16.61000061  48.15999985
C     6.56000042  17.00000000  47.77999878
C     6.32999992  17.53999901  46.47999573
C     7.31999969  17.52000046  45.54999924
C     8.64000034  17.05999947  45.86999893
C    12.71999931  16.13999939  46.73999786
C    13.40000057  16.31000137  45.47999954
C    14.80000019  16.31999969  45.51000214
C     4.90000010  17.87999916  46.06999969
H     4.46342850  17.19103622  45.34692764
H     9.52000046  17.29999924  43.83999634
H    10.55999947  16.09000015  48.50000000
H     8.02999973  16.03000069  49.06999969
H     5.66999960  16.72000122  48.34000015
H     7.07000017  18.01000023  44.61000061
H    15.31999969  16.40999985  44.55999756
H     4.11999989  17.71000099  46.83000183
H     4.84000015  18.92000008  45.75000000
S    15.90999985  15.10000038  49.19000244
C    18.57999992  14.75999928  48.63999939
C    17.35000038  15.26999950  48.27999878
C    17.00000000  15.80000019  46.93000031
C    18.09000015  15.80999947  46.04999924
C    19.34000015  15.24000072  46.36000061
C    20.29000092  15.19999981  45.38000107
C    21.54000092  14.63000107  45.63999939
C    21.88999939  14.13000011  46.97000122
C    20.95999908  14.21000004  47.95999908
C    19.64999962  14.70999908  47.65999603
C    15.52000046  15.97000027  46.69000244
C    14.82999992  15.60999966  47.90000153
C    13.43999958  15.71000004  47.88000107
C    23.34000015  13.94000053  47.31999969
H    23.63220978  14.49591255  48.21088409
H    18.76000023  14.39000034  49.65000153
H    17.86999893  16.09000015  45.01999664
H    20.22999954  15.75000000  44.45000076
H    22.30999947  14.53999996  44.87999725
H    21.18999863  13.89000034  48.96999741
H    12.81999969  15.36000061  48.70999908
H    24.10000038  14.19999981  46.58000183
H    23.47999954  12.88000011  47.55000305
S    16.36000061  12.44999981  52.14000320
C    18.94000053  11.76000023  51.31000137
C    17.61000061  11.84999943  51.02000427
C    17.02999878  11.40999985  49.77000427
C    17.95999908  10.88000107  48.81999969
C    19.34000015  11.00999928  49.02999878
C    20.25000000  10.54999924  48.06999969
C    21.61999893  10.50000000  48.30999756
C    22.17000008  10.98999977  49.54000092
C    21.22999954  11.50000000  50.52000046
C    19.82999992  11.46000004  50.30000305
C    15.57999992  11.76000023  49.65999985
C    15.06000042  12.13000107  50.93999863
C    13.71000099  12.48000050  51.09000397
C    23.55999947  10.52000046  49.97000122
H    23.79273796  10.90084553  50.96443176
H    19.27999878  12.18999958  52.25999832
H    17.67000008  10.18000031  48.04000092
H    19.89999962  10.11000061  47.14000320
H    22.22999954   9.86999989  47.68000031
H    21.48999977  11.96000004  51.46999741
H    13.48999977  13.15999985  51.90999985
H    23.65999985   9.43000031  50.08999634
H    24.34000015  10.86999989  49.29000092
S    12.20999908  12.11999989  47.41000366
C     9.59999943  12.69000053  48.13999939
C    10.93999958  12.56000042  48.53000259
C    11.44000053  12.79999924  49.85000229
C    10.55999947  13.27999973  50.77000046
C     9.18000031  13.34000015  50.47999954
C     8.21000004  13.89999962  51.40999603
C     6.88000011  14.04000092  51.04999924
C     6.51000023  13.73000050  49.71000290
C     7.44999981  13.40000057  48.79000092
C     8.73000050  13.14000034  49.13999939
C    12.82999992  12.42000008  49.93999863
C    13.43999958  12.05999947  48.67000198
C    14.77000046  11.72000027  48.54000092
C     5.03999996  13.96999931  49.22999954
H     4.73196650  13.38327026  48.36457062
H     9.17000008  12.39999962  47.18000031
H    10.84000015  13.55999947  51.77999878
H     8.59000015  14.34000015  52.32999802
H     6.07999992  14.37999916  51.70000076
H     7.13000011  13.20000076  47.77000046
H    15.18000031  11.33999920  47.61000061
H     4.90000010  15.03999901  49.05000305
H     4.40000010  13.68999958  50.07999802
