96

S    12.18999958  16.23999977  44.16999817
C     9.57999992  16.61000061  44.82999802
C    10.77000046  16.21999931  45.26000214
C    11.13000011  15.88000107  46.56999969
C    10.10000038  15.86999989  47.50000000
C     8.80999947  16.29999924  47.19999695
C     7.73999977  16.39000130  48.09999847
C     6.43000031  16.72999954  47.74000168
C     6.21000004  17.13999939  46.38999939
C     7.26999998  17.11000061  45.52000046
C     8.60000038  16.72999954  45.80999756
C    12.56000042  15.60999966  46.72000122
C    13.28999996  15.88999939  45.56999969
C    14.65999985  15.80999947  45.50000000
C     4.90999985  17.68000031  45.86000061
H     4.49782515  17.03331184  45.08539963
H     9.30000019  17.05999947  43.88000107
H    10.18000031  15.50000000  48.50999832
H     7.88000011  15.97000027  49.09000015
H     5.58000040  16.61999893  48.40000153
H     7.04999971  17.47999954  44.52000046
H    15.15999985  16.10999870  44.59000015
H     4.21000004  17.79000092  46.70000076
H     5.13999987  18.63000107  45.37000275
S    15.75000000  14.72000027  49.12000275
C    18.45000076  14.60000038  48.37999725
C    17.18000031  14.84000015  48.01000214
C    16.84000015  15.34999943  46.72999954
C    17.81999969  15.51000023  45.80999756
C    19.15999985  15.10000038  46.00000000
C    20.13000107  15.08999920  44.97000122
C    21.45000076  14.70000076  45.19000244
C    21.77999878  14.34000015  46.59000015
C    20.81000137  14.40000057  47.64999771
C    19.45999908  14.68999958  47.34000397
C    15.39000034  15.57000065  46.59000015
C    14.68999958  15.27999973  47.80000305
C    13.28999996  15.32999992  47.94000244
C    23.15000153  13.89999962  46.95999908
H    23.53622818  14.49628258  47.78666306
H    18.81999969  14.30999947  49.36000061
H    17.54999924  15.78999996  44.79000092
H    19.86999893  15.22999954  43.92000198
H    22.14999962  14.56999969  44.36999893
H    21.28000069  14.22000027  48.61000061
H    12.76000023  15.13000011  48.87000275
H    23.82999802  14.01000023  46.11000061
H    23.05999947  12.84000015  47.22000122
S    16.38000107  12.50000000  52.37999725
C    18.86000061  11.82999992  51.58000183
C    17.53999901  11.84999943  51.31000137
C    17.02000046  11.39999962  50.06000137
C    17.88999939  11.02000046  49.01000214
C    19.27999878  11.10999966  49.23999786
C    20.12000084  10.85999966  48.22000122
C    21.51000023  10.77000046  48.43000031
C    21.98999786  11.05999947  49.73999786
C    21.14000130  11.39999962  50.76000214
C    19.73999977  11.47999954  50.51000214
C    15.60999966  11.64000034  50.02999878
C    15.03000069  12.15000057  51.23000336
C    13.68000031  12.48000050  51.33999634
C    23.45000076  10.90000057  50.10000229
H    23.70101929  11.22074604  51.11104584
H    19.19999886  12.18000031  52.55000305
H    17.48999977  10.69000053  48.04999924
H    19.67000008  10.39000034  47.35000229
H    22.11000061  10.29999924  47.65999603
H    21.38999939  11.72999954  51.76000214
H    13.25000000  12.97000027  52.22000122
H    23.65999985   9.82999992  50.13000107
H    24.15999985  11.33999920  49.38000107
S    12.41000080  11.69000053  47.51999664
C     9.77999973  12.39999962  48.13999939
C    11.09000015  12.35000038  48.54999924
C    11.47999954  12.68000031  49.89999771
C    10.53999996  13.17999935  50.75000000
C     9.17000008  13.38999939  50.43000031
C     8.15999985  13.66000080  51.33999634
C     6.86999989  13.73000050  50.98999786
C     6.44999981  13.45999908  49.66999817
C     7.39000034  13.00000000  48.80000305
C     8.78000069  12.88000011  49.15000153
C    12.89000034  12.38999939  50.15999603
C    13.48999977  11.90999985  48.90999603
C    14.80000019  11.57999992  48.89999771
C     5.07000017  13.63999939  49.33000183
H     4.74130726  13.15443039  48.41115189
H     9.44999981  12.10999966  47.15000153
H    10.77999973  13.42000008  51.77999878
H     8.47000027  13.73000050  52.37999725
H     6.12999964  14.09999943  51.70000076
H     7.11000013  12.90999985  47.75000000
H    15.22999954  11.39000034  47.91999817
H     4.77999973  14.70000076  49.33000183
H     4.44999981  13.34000015  50.19000244
