96

S    12.10000038  16.75000000  44.06999969
C     9.50000000  16.94000053  44.78000259
C    10.70000076  16.40999985  45.02999878
C    10.98999977  15.80000019  46.30000305
C     9.96000004  15.65999985  47.22000122
C     8.67999935  16.17000008  47.04000092
C     7.62000036  16.06999969  47.98999786
C     6.43000031  16.51000023  47.70000076
C     6.14000034  17.09000015  46.45000076
C     7.16000032  17.36999893  45.54999924
C     8.45000076  16.77999878  45.77000046
C    12.43999958  15.64000034  46.43000031
C    13.15999985  16.13000107  45.34999847
C    14.55000019  16.13999939  45.35999680
C     4.61000013  17.35000038  46.25999832
H     4.16075659  16.78142738  45.44574738
H     9.30000019  17.43000031  43.82999802
H    10.18000031  15.26000023  48.20000076
H     7.82999992  15.51000023  48.89999771
H     5.65000010  16.34000015  48.43000031
H     7.03000021  17.92000008  44.61999893
H    15.05000019  16.34000015  44.40999985
H     4.03999996  17.15999985  47.18000031
H     4.59999990  18.44000053  46.12999725
S    15.59999943  14.86999989  48.95000076
C    18.27999878  14.70000076  48.36000061
C    17.00000000  15.11999989  47.98999786
C    16.69999886  15.59999943  46.70999908
C    17.76000023  15.67000008  45.83000183
C    19.02000046  15.29999924  46.18000031
C    20.09000015  15.17000008  45.18000031
C    21.38000107  14.75000000  45.54999924
C    21.60000038  14.21000004  46.81999969
C    20.59000015  14.19999981  47.70999908
C    19.30999947  14.73999977  47.43000031
C    15.24000072  15.71000004  46.46999741
C    14.53999996  15.34999943  47.63000107
C    13.12000084  15.26999950  47.63000107
C    22.98000145  13.68000031  47.19999695
H    23.37554932  14.12328815  48.11385727
H    18.39999962  14.28999996  49.36000061
H    17.46000099  15.85000038  44.79999924
H    19.88000107  15.46000004  44.15999985
H    22.14999962  14.75000000  44.79000092
H    20.79000092  13.96999931  48.75999832
H    12.53999901  14.98000050  48.50000000
H    23.64999962  13.86000061  46.35000229
H    22.98999977  12.60000038  47.32999802
S    16.15999985  12.30999947  52.28000259
C    18.77000046  11.85999966  51.46999741
C    17.48999977  11.94000053  51.19999695
C    16.95000076  11.65999985  49.88999939
C    17.79999924  11.43000031  48.81999969
C    19.19000053  11.32999992  49.15000153
C    20.10999870  10.73999977  48.25000000
C    21.40000153  10.44999981  48.62999725
C    21.93000031  10.81999969  49.89999771
C    21.05999947  11.47999954  50.72000122
C    19.70000076  11.57999992  50.44000244
C    15.48999977  11.73999977  49.81999969
C    14.91000080  12.13999939  51.09000397
C    13.63000011  12.63000011  51.17000198
C    23.36000061  10.54999924  50.27999878
H    23.69691277  11.03818035  51.19447708
H    19.19999886  12.18999958  52.42000198
H    17.38999939  11.14999962  47.85999680
H    19.69000053  10.57000065  47.25999832
H    21.88999939   9.77000046  47.93000031
H    21.34000015  11.84000015  51.70999908
H    13.35999966  13.07999992  52.11999893
H    23.44000053   9.46000004  50.28999710
H    24.02000046  10.93000031  49.50000000
S    12.13000107  11.61999893  47.67000198
C     9.53999996  12.39999962  48.23999786
C    10.85000038  12.35000038  48.64999771
C    11.31999969  12.84000015  49.92000198
C    10.44000053  13.35999966  50.77999878
C     9.04999924  13.40000057  50.45999908
C     8.10999966  13.89000034  51.45999908
C     6.72999954  13.85000038  51.20999908
C     6.28000021  13.23999977  50.01999664
C     7.14999962  12.69000053  49.09999847
C     8.57999992  12.86999893  49.23999786
C    12.76999950  12.48000050  50.07999802
C    13.31999969  11.92999935  48.87000275
C    14.63000107  11.59000015  48.68999863
C     4.82999992  13.40000057  49.68000031
H     4.61319256  13.06429863  48.66590118
H     9.19999981  12.01000023  47.28000259
H    10.80999947  13.75000000  51.72000122
H     8.43000031  14.32000065  52.41000366
H     6.11999989  14.52000046  51.79999924
H     6.93000031  12.22000027  48.13999939
H    15.10000038  11.31000042  47.75000000
H     4.48999977  14.44000053  49.79999924
H     4.32999992  12.81999969  50.45999908
