96

S    12.05000019  16.23999977  43.79000092
C     9.47000027  16.72999954  44.61999893
C    10.70000076  16.22999954  44.93000031
C    11.00000000  15.62999916  46.18999863
C    10.06999969  15.76000023  47.15999985
C     8.76000023  16.25000000  46.86999893
C     7.69999981  16.39000130  47.81000137
C     6.46000004  16.90000153  47.55000305
C     6.23000050  17.38000107  46.23000336
C     7.23999977  17.35999870  45.37000275
C     8.51000023  16.79000092  45.59999847
C    12.38000011  15.27999973  46.31000137
C    13.10999966  15.75000000  45.10000229
C    14.52999973  15.75000000  45.05000305
C     4.94999981  17.97000122  45.90000153
H     4.40346766  17.31416130  45.22230148
H     9.26999950  17.13999939  43.63999939
H    10.24000072  15.31000042  48.13000107
H     7.76000023  16.09000015  48.86000061
H     5.71000004  16.79999924  48.34000015
H     7.16000032  17.84000015  44.40000153
H    15.06000042  16.05999947  44.15999985
H     4.39000034  18.15000153  46.81999969
H     5.01999950  18.97999954  45.47999954
S    15.59000015  14.96999931  48.79000092
C    18.39999962  14.60000038  48.16999817
C    17.05999947  14.96999931  47.81000137
C    16.73999977  15.25000000  46.40999603
C    17.75000000  15.44000053  45.52000046
C    19.09000015  15.17000008  45.84000015
C    20.19000053  15.44999981  44.98000336
C    21.47000122  15.19999981  45.38000107
C    21.77999878  14.70000076  46.68000031
C    20.79999924  14.44000053  47.56999969
C    19.42000008  14.70000076  47.18000031
C    15.25000000  15.36999893  46.20999908
C    14.55000019  15.14999962  47.38999939
C    13.17000008  15.11000061  47.42000198
C    23.19999886  14.34999943  47.01000214
H    23.59508324  14.83846760  47.90073395
H    18.71999931  14.19999981  49.12000275
H    17.52000046  15.95999908  44.59000015
H    20.02000046  15.85000038  43.97999573
H    22.27000046  15.42000008  44.68000031
H    20.95000076  14.18000031  48.61000061
H    12.61000061  14.86999989  48.31999969
H    23.88000107  14.68999958  46.23000336
H    23.35000038  13.27000046  47.09999847
S    16.15999985  12.32999992  52.01000214
C    18.86000061  11.97000027  51.32999802
C    17.52000046  11.92000008  51.00000000
C    17.05999947  11.61999893  49.69999695
C    18.02000046  11.19999981  48.75999832
C    19.40999985  11.23000050  49.02999878
C    20.36000061  10.78999996  48.08000183
C    21.63000107  10.67999935  48.41999817
C    22.07999992  10.93000031  49.75999832
C    21.21999931  11.50000000  50.61000061
C    19.81999969  11.69000053  50.33000183
C    15.59999943  11.71000004  49.58000183
C    14.98999977  12.13000107  50.72000122
C    13.69999981  12.48000050  50.79000092
C    23.54000092  10.69000053  50.13999939
H    23.79525948  10.97361946  51.16102982
H    19.19999886  11.96000004  52.36000061
H    17.77000046  10.70000076  47.81999969
H    19.93000031  10.27999973  47.22999954
H    22.27999878  10.22999954  47.65999603
H    21.45000076  11.68000031  51.65000153
H    13.30000019  12.75000000  51.77000046
H    23.81999969   9.65999985  49.86000061
H    24.17000008  11.25000000  49.43000031
S    12.23999977  11.59999943  47.18000031
C     9.59000015  11.90999985  47.90999985
C    10.93999958  11.77999973  48.27000046
C    11.42000008  12.30999947  49.48999786
C    10.44999981  12.74000072  50.34000015
C     9.02000046  12.71000004  50.06999969
C     8.03999996  13.22999954  51.02000427
C     6.71000004  13.28999996  50.77999878
C     6.28000021  12.89000034  49.47000122
C     7.14999962  12.35999966  48.50000000
C     8.56999969  12.34000015  48.80000305
C    12.89000034  12.23000050  49.65000153
C    13.45000076  11.69000053  48.50999832
C    14.84000015  11.39999962  48.44999695
C     4.86999989  13.04999924  49.18000031
H     4.58422613  12.91425800  48.13692474
H     9.31999969  11.77000046  46.86999893
H    10.77000046  13.27999973  51.23000336
H     8.40999985  13.57999992  51.97999954
H     6.02999973  13.63999939  51.55000305
H     6.84999990  12.02000046  47.50999832
H    15.31000042  11.00999928  47.55000305
H     4.53000021  13.99000072  49.64000320
H     4.36999989  12.28000069  49.78000259
