96

S    12.28000069  16.97000122  44.26000214
C     9.59999943  17.23999977  44.93999863
C    10.88000107  16.84000015  45.27000046
C    11.21999931  16.36000061  46.56999969
C    10.26000023  16.13999939  47.51999664
C     8.93000031  16.61999893  47.22999954
C     7.81000042  16.39000130  48.09999847
C     6.56000042  16.82999992  47.81999969
C     6.30999994  17.48999977  46.62000275
C     7.31999969  17.59000015  45.72000122
C     8.64999962  17.26000023  46.00999832
C    12.68000031  16.13999939  46.65999985
C    13.40000057  16.44000053  45.52999878
C    14.78000069  16.45000076  45.52999878
C     4.90999985  17.80999947  46.23000336
H     4.58271074  17.15542221  45.42222214
H     9.43000031  17.65999985  43.95999908
H    10.36999893  15.57000065  48.44999695
H     8.00000000  15.80999947  49.00000000
H     5.84000015  16.62999916  48.61000061
H     7.02000046  17.71999931  44.68000031
H    15.31000042  16.86000061  44.66999817
H     4.35999966  17.75000000  47.18000031
H     4.82999992  18.88000107  46.02000427
S    15.81999969  15.13000011  49.12000275
C    18.54999924  14.80000019  48.20999908
C    17.26000023  15.19999981  47.97000122
C    16.95000076  15.77000046  46.68000031
C    17.86999893  15.92000008  45.70999908
C    19.15999985  15.54999924  46.00999832
C    20.13999939  15.71000004  44.98000336
C    21.42999840  15.17000008  45.15999603
C    21.70000076  14.57999992  46.38000107
C    20.76999855  14.42000008  47.35000229
C    19.55999947  14.98999977  47.22000122
C    15.47999954  16.00000000  46.58000183
C    14.73999977  15.65999985  47.76000214
C    13.38999939  15.69000053  47.77999878
C    23.12000084  14.09999943  46.77000046
H    23.51101685  14.74238396  47.55901718
H    18.76000023  14.26000023  49.13000107
H    17.67000008  16.31000137  44.71000290
H    19.86999893  16.18999863  44.05000305
H    22.22999954  15.21999931  44.41999817
H    20.93000031  13.89999962  48.29000092
H    12.90999985  15.40999985  48.72000122
H    23.78999901  13.94999981  45.91999817
H    23.09000015  13.07000065  47.14000320
S    11.90999985  16.72999954  50.79999924
C     9.22999954  17.19000053  51.59000015
C    10.48999977  16.64999962  51.81999969
C    10.77000046  16.13999939  53.09999847
C     9.85999966  16.20000076  54.12000275
C     8.53999996  16.73999977  53.85000229
C     7.50000000  16.60000038  54.80999756
C     6.21000004  17.13999939  54.54000092
C     5.84000015  17.50000000  53.27000046
C     6.80000019  17.57999992  52.28000259
C     8.19999981  17.29999924  52.56000137
C    12.22000027  16.05999947  53.33000183
C    12.98999977  16.22999954  52.14000320
C    14.40999985  16.14999962  52.15000153
C     4.33999968  17.75000000  52.90999985
H     3.89220452  17.21553421  52.07218933
H     9.09000015  17.56000137  50.58000183
H    10.03999901  15.69000053  55.06000137
H     7.73999977  16.01000023  55.68999863
H     5.42000008  17.26000023  55.27000046
H     6.51000023  17.64999962  51.24000168
H    15.03000069  16.27000046  51.26999664
H     3.68000007  17.61000061  53.76999664
H     4.18000031  18.82999992  52.76000214
S    15.39000034  15.54999924  56.02000427
C    18.01000023  14.98999977  55.27999878
C    16.76000023  15.34000015  54.94999695
C    16.46000099  15.67999935  53.61000061
C    17.46000099  15.77999973  52.63000107
C    18.73999977  15.36000061  53.02999878
C    19.69000053  15.18000031  52.00000000
C    20.95000076  14.78999996  52.31999969
C    21.31000137  14.52000046  53.63999939
C    20.40999985  14.60999966  54.64000320
C    19.04000092  14.94999981  54.40000153
C    15.03999901  15.85999966  53.36999893
C    14.28999996  15.70000076  54.59000015
C    12.89000034  15.80000019  54.54000092
C    22.79999924  14.32000065  53.93000031
H    22.99557304  14.76003838  54.90786362
H    18.15999985  14.57999992  56.27999878
H    17.12000084  15.90999985  51.60999680
H    19.36000061  15.51000023  51.02000427
H    21.77999878  14.80000019  51.63000107
H    20.68000031  14.39000034  55.66999817
H    12.30000019  15.43000031  55.38000107
H    23.40999985  14.75999928  53.13000107
H    23.05999947  13.26000023  53.95999908
