96

S    12.02000046  16.25000000  44.34000015
C     9.43000031  16.76000023  45.13999939
C    10.62000084  16.18000031  45.41999817
C    10.95999908  15.64000034  46.72999954
C    10.01000023  15.57000065  47.65999603
C     8.64000034  16.02000046  47.39999771
C     7.57999992  16.02000046  48.40999985
C     6.37000036  16.46000099  48.08000183
C     6.05999994  16.87999916  46.81999969
C     7.09000015  17.11000061  45.93999863
C     8.42000008  16.70999908  46.12999725
C    12.43999958  15.60999966  46.83000183
C    13.15000057  16.02000046  45.65000153
C    14.53999996  15.90999985  45.59999847
C     4.63000011  17.30999947  46.52000046
H     4.14857912  16.75778198  45.71291351
H     9.38000011  17.43999863  44.29000092
H    10.29000092  15.34000015  48.68000031
H     7.85000038  15.70000076  49.40999985
H     5.59999990  16.61999893  48.82999802
H     6.75000000  17.53999901  45.00000000
H    15.05000019  15.90999985  44.64000320
H     4.01999998  17.26000023  47.43000031
H     4.74000025  18.36000061  46.23000336
S    15.69000053  14.75000000  49.22999954
C    18.32999992  14.65999985  48.50000000
C    17.02000046  14.88000011  48.09999847
C    16.64999962  15.27999973  46.79999924
C    17.71000099  15.42000008  45.86999893
C    19.04000092  15.05000019  46.20999908
C    20.12000084  15.06000042  45.21999741
C    21.38000107  14.75999928  45.48999786
C    21.68000031  14.44000053  46.86000061
C    20.66999817  14.29999924  47.77999878
C    19.30999947  14.65000057  47.50999832
C    15.18000031  15.52999973  46.73999786
C    14.52000046  15.19999981  47.97000122
C    13.12000084  15.22999954  48.01000214
C    23.06999969  14.01999950  47.23999786
H    23.33552361  14.20658398  48.28056717
H    18.53000069  14.27999973  49.50000000
H    17.48999977  15.64000034  44.82999802
H    19.89999962  15.15999985  44.15999985
H    22.13000107  14.78000069  44.69999695
H    20.92000008  13.99000072  48.79000092
H    12.56999969  14.96999931  48.90999603
H    23.81000137  14.53999996  46.60999680
H    23.15999985  12.97000027  46.93000031
S    16.02000046  12.13999939  52.41000366
C    18.68000031  11.67000008  51.52999878
C    17.35000038  11.69000053  51.25999832
C    16.79999924  11.36999989  49.98000336
C    17.69000053  10.81999969  49.08000183
C    19.05999947  10.80999947  49.29999924
C    20.05000114  10.39999962  48.34000015
C    21.44000053  10.25000000  48.72000122
C    21.90000153  10.77999973  49.97000122
C    20.98999977  11.39000034  50.79999924
C    19.59000015  11.33999920  50.51000214
C    15.38000011  11.44999981  49.86999893
C    14.80000019  11.94000053  51.10000229
C    13.45999908  12.25000000  51.18000031
C    23.38999939  10.54999924  50.45000076
H    23.61384773  10.98325539  51.42482376
H    18.95000076  11.87000084  52.56999969
H    17.40999985  10.47999954  48.09000015
H    19.68000031  10.18000031  47.34000397
H    22.04999924   9.56999969  48.13000107
H    21.24000168  11.77000046  51.79000092
H    13.00000000  12.42000008  52.15000153
H    23.48999977   9.48999977  50.70000076
H    24.18999863  10.80000019  49.73999786
S    11.96000004  11.56999969  47.57999802
C     9.38000011  12.23000050  48.20000076
C    10.72999954  12.15999985  48.56999969
C    11.23999977  12.60000038  49.78000259
C    10.34999943  13.01000023  50.72999954
C     8.97000027  13.02999973  50.47000122
C     8.02999973  13.53000069  51.43000031
C     6.71999979  13.60000038  51.17000198
C     6.21000004  13.22000027  49.89999771
C     7.09999990  12.69999981  48.96999741
C     8.46000004  12.67000008  49.19000244
C    12.64000034  12.18999958  50.00999832
C    13.21000004  11.69999981  48.85000229
C    14.53999996  11.31999969  48.75999832
C     4.72000027  13.31999969  49.69999695
H     4.36202097  13.00254631  48.72062302
H     9.07999992  11.69999981  47.29999924
H    10.70000076  13.12999916  51.75000000
H     8.38000011  13.88000011  52.39999771
H     6.03999996  13.89999962  51.97000122
H     6.67999983  12.34000015  48.02999878
H    14.92000008  11.10000038  47.77000046
H     4.55000019  14.40000057  49.73999786
H     4.19000006  12.88000011  50.54999924
