96

S    12.32999992  16.73999977  44.43999863
C     9.70000076  17.07999992  45.00000000
C    10.90999985  16.75000000  45.47000122
C    11.17000008  16.11999893  46.72000122
C    10.07999992  16.10000038  47.57999802
C     8.75000000  16.39999962  47.16999817
C     7.68000031  16.38000107  48.09000015
C     6.46000004  16.87000084  47.72999573
C     6.24000025  17.27000046  46.39999771
C     7.31999969  17.38000107  45.56999969
C     8.57999992  16.87999916  45.87999725
C    12.56999969  15.81999969  46.93999863
C    13.27999973  16.07999992  45.70999908
C    14.63000107  15.77999973  45.63999939
C     4.88999987  17.65999985  46.04000092
H     4.56027412  17.00054741  45.23719025
H     9.53999996  17.61999893  44.06999969
H    10.36000061  15.88000107  48.61000061
H     7.92999983  16.21999931  49.13000107
H     5.75000000  17.22999954  48.47000122
H     7.13999987  17.72999954  44.55999756
H    15.19999981  15.92000008  44.72999954
H     4.21000004  17.65999985  46.90000153
H     4.76999998  18.64999962  45.59000015
S    15.65000057  14.96999931  49.34999847
C    18.37000084  14.63000107  48.62999725
C    17.09000015  14.96999931  48.33000183
C    16.73999977  15.43000031  47.05999756
C    17.80999947  15.62999916  46.18000031
C    19.11999893  15.24000072  46.43000031
C    20.20000076  15.36999893  45.52000046
C    21.40999985  14.88000011  45.80999756
C    21.63000107  14.17000008  47.01000214
C    20.62000084  14.18000031  47.95000076
C    19.38999939  14.73000050  47.68000031
C    15.29999924  15.57999992  46.86000061
C    14.55999947  15.42000008  48.06000137
C    13.17999935  15.44999981  48.13999939
C    23.08000183  13.81999969  47.39999771
H    23.47908974  14.51471043  48.13905334
H    18.59000015  14.18000031  49.59000015
H    17.54999924  16.15999985  45.26000214
H    20.00999832  15.80999947  44.54000092
H    22.18000031  14.84000015  45.04000092
H    20.65999985  13.81999969  48.97999573
H    12.67000008  15.19000053  49.06999969
H    23.77000046  13.78999901  46.56000137
H    23.02999878  12.76999950  47.74000168
S    16.13000107  12.38000011  52.58999634
C    18.71000099  11.79999924  51.75000000
C    17.36999893  11.80999947  51.45000076
C    16.84000015  11.46000004  50.17000198
C    17.70000076  11.21000099  49.10999680
C    19.09000015  11.05000019  49.31000137
C    20.00000000  10.53999996  48.34999847
C    21.38999939  10.47000027  48.68999863
C    21.84999847  10.80999947  49.97000122
C    20.95999908  11.25000000  50.90000153
C    19.57999992  11.42000008  50.66999817
C    15.36999893  11.64000034  50.04000092
C    14.93999958  12.20999908  51.23000336
C    13.68000031  12.76999950  51.31000137
C    23.34000015  10.52999973  50.24000168
H    23.63661003  11.07378578  51.13689423
H    18.96999931  12.18999958  52.72999573
H    17.26000023  11.21999931  48.11999893
H    19.57999992  10.19000053  47.41000366
H    22.09000015  10.19999981  47.90999985
H    21.34000015  11.51999950  51.88000107
H    13.43000031  13.12000084  52.29999924
H    23.52999878   9.44999981  50.33000183
H    23.90999985  10.93999958  49.40000153
S    12.17000008  12.07999992  47.71999741
C     9.55000019  12.57999992  48.39000320
C    10.88000107  12.53999901  48.75000000
C    11.33999920  12.81000042  50.06000137
C    10.36999893  13.30999947  50.93999863
C     8.96000004  13.40000057  50.61999893
C     7.90999985  13.71999931  51.52000046
C     6.57999992  13.69999981  51.18000031
C     6.25999975  13.36999989  49.84000397
C     7.26999998  13.02999973  48.94000244
C     8.59000015  13.00000000  49.31999969
C    12.79000092  12.60000038  50.21999741
C    13.38000107  12.11999989  49.01000214
C    14.65999985  11.68000031  48.88999939
C     4.85000038  13.64999962  49.36999893
H     4.58868361  13.16267967  48.43067169
H     9.23999977  12.25000000  47.39999771
H    10.69000053  13.66000080  51.91999817
H     8.23000050  13.96000004  52.52999878
H     5.86999989  14.09000015  51.90999985
H     7.11000013  12.82999992  47.88999939
H    15.21000004  11.54000092  47.95999908
H     4.74000025  14.73000050  49.20999908
H     4.11000013  13.31999969  50.10000229
