96

S    12.13000107  16.57999992  44.15999985
C     9.44000053  16.77999878  44.72000122
C    10.69000053  16.39999962  45.13000107
C    10.95999908  16.03000069  46.47999573
C     9.89999962  15.90000057  47.39999771
C     8.56000042  16.17000008  46.93000031
C     7.46000004  16.26000023  47.83000183
C     6.11999989  16.57999992  47.50000000
C     5.88000011  17.02999878  46.11999893
C     6.98000002  16.95000076  45.20999908
C     8.31999969  16.55999947  45.59000015
C    12.38999939  15.70000076  46.63000107
C    13.15999985  15.98999977  45.47000122
C    14.50000000  15.95000076  45.45000076
C     4.55000019  17.48999977  45.63000107
H     4.21324015  16.87504768  44.79542160
H     9.34000015  17.13999939  43.69999695
H    10.15999985  15.70000076  48.43999863
H     7.69000006  16.10000038  48.88000107
H     5.38000011  16.77999878  48.27000046
H     6.78999996  17.43999863  44.25000000
H    15.03000069  16.28000069  44.55999756
H     3.84000015  17.34000015  46.45000076
H     4.65000010  18.54999924  45.38999939
S    15.50000000  14.96999931  49.08000183
C    18.22999954  14.82999992  48.43999863
C    17.02000046  15.13000011  48.11999893
C    16.65999985  15.52000046  46.77000046
C    17.65999985  15.67000008  45.84000015
C    18.96999931  15.26999950  46.13999939
C    20.03000069  15.34999943  45.18000031
C    21.30000114  14.93999958  45.50000000
C    21.55999947  14.42999935  46.84000015
C    20.55000114  14.42999935  47.81000137
C    19.29000092  14.85000038  47.47000122
C    15.21000004  15.59999943  46.59000015
C    14.45000076  15.32999992  47.75000000
C    13.07000065  15.21999931  47.77000046
C    22.92000008  14.04999924  47.35000229
H    23.21676254  14.52771378  48.28371429
H    18.27999878  14.47999954  49.45999908
H    17.43999863  16.03999901  44.85000229
H    19.76000023  15.71000004  44.19000244
H    22.10000038  15.01999950  44.77000427
H    20.79999924  14.22999954  48.85000229
H    12.44999981  15.07999992  48.66000366
H    23.64000130  14.14999962  46.52999878
H    22.86000061  13.01000023  47.67000198
S    11.82999992  16.42000008  50.75000000
C     9.02999973  16.84999847  51.39999771
C    10.31000042  16.34000015  51.77000046
C    10.59999943  15.92000008  53.13999939
C     9.48999977  15.81999969  54.00000000
C     8.19000053  16.29999924  53.61000061
C     7.09000015  16.21999931  54.55999756
C     5.86000013  16.61000061  54.29999924
C     5.64000034  17.15999985  53.00000000
C     6.69000053  17.36999893  52.12999725
C     7.96999979  16.75000000  52.32999802
C    12.03999996  15.77000046  53.34999847
C    12.81000042  16.07999992  52.16999817
C    14.22000027  16.11999893  52.19999695
C     4.30000019  17.73999977  52.65999603
H     4.00044775  17.35194397  51.68645477
H     8.89000034  17.32999992  50.43000031
H     9.56999969  15.11000061  54.81999969
H     7.26000023  15.77999973  55.54000092
H     5.03999996  16.46000099  54.99000168
H     6.52999973  17.97000122  51.23000336
H    14.80999947  16.07999992  51.29000092
H     3.63999987  17.43999863  53.47999954
H     4.39000034  18.82999992  52.63999939
S    15.18000031  15.19999981  55.94999695
C    17.86000061  14.82999992  55.20999908
C    16.61000061  15.34000015  54.84000397
C    16.27000046  15.71000004  53.52000427
C    17.27000046  15.90999985  52.67000198
C    18.54999924  15.50000000  53.01000214
C    19.71999931  15.71000004  52.16999817
C    20.90999985  15.18000031  52.52999878
C    21.11000061  14.40999985  53.68000031
C    20.07999802  14.32000065  54.61000061
C    18.82999992  14.78000069  54.23999786
C    14.88000011  15.93999958  53.34000015
C    14.15999985  15.59000015  54.54000092
C    12.77999973  15.47000027  54.51000214
C    22.55000114  14.09000015  54.10999680
H    22.89577675  14.60513687  55.00619507
H    17.94999886  14.46000004  56.23000336
H    16.95000076  16.39999962  51.75000000
H    19.54000092  16.11999893  51.17000198
H    21.77999878  15.53999996  51.98999786
H    20.15999985  14.04999924  55.65999985
H    12.30999947  15.21000004  55.45999908
H    23.16999817  14.34000015  53.23999786
H    22.53999901  12.98999977  54.06000137
