96

S    12.41000080  17.10000038  44.27000046
C     9.75000000  17.15999985  45.07999802
C    11.03999996  16.87999916  45.37000275
C    11.42000008  16.36999893  46.65999985
C    10.48999977  16.27000046  47.68000031
C     9.11999989  16.56999969  47.45999908
C     8.01000023  16.47999954  48.41999817
C     6.70000029  16.80999947  48.02000046
C     6.42000008  17.25000000  46.69000244
C     7.40999985  17.22999954  45.76000214
C     8.78000069  16.97999954  46.05999756
C    12.86000061  16.27000046  46.75000000
C    13.52000046  16.62999916  45.51000214
C    14.93000031  16.44000053  45.38999939
C     4.98000002  17.64000130  46.38999939
H     4.57088804  16.98249817  45.62291336
H     9.47000027  17.28000069  44.02999878
H    10.77000046  15.88000107  48.64999771
H     8.14999962  16.09000015  49.41999817
H     5.91000032  16.77000046  48.75999832
H     7.27999973  17.70000076  44.79999924
H    15.39000034  16.51000023  44.40999985
H     4.46000004  17.52000046  47.35000229
H     4.96000004  18.68000031  46.05999756
S    15.97000027  15.19999981  49.09999847
C    18.53999901  14.68000031  48.31999969
C    17.34000015  15.11999989  47.98999786
C    17.02999878  15.54999924  46.69000244
C    18.00000000  15.53999996  45.70000076
C    19.31999969  15.14999962  46.04999924
C    20.43999863  15.36000061  45.21999741
C    21.68999863  14.81999969  45.61000061
C    21.88999939  14.25000000  46.88999939
C    20.82999992  14.23999977  47.78999710
C    19.55000114  14.65000057  47.35000229
C    15.62999916  15.95999908  46.51000214
C    15.00000000  15.77000046  47.78999710
C    13.63000011  16.01000023  47.93000031
C    23.22999954  13.81999969  47.35000229
H    23.55981064  14.27886868  48.28207779
H    18.81000137  14.39000034  49.33000183
H    17.82999992  15.90000057  44.68000031
H    20.28000069  15.85000038  44.26000214
H    22.53999901  14.93999958  44.94999695
H    20.97999954  13.97999954  48.82999802
H    13.12000084  15.77000046  48.86000061
H    24.00000000  14.06999969  46.60999680
H    23.25000000  12.72999954  47.47000122
S    15.77999973  13.09999943  52.36999893
C    18.48999977  12.53999901  51.70999908
C    17.11000061  12.50000000  51.38999939
C    16.69999886  11.96000004  50.12000275
C    17.63000107  11.33999920  49.29999924
C    19.00000000  11.36999989  49.55999756
C    19.93000031  10.67000008  48.68999863
C    21.21000099  10.52999973  49.05000305
C    21.73000145  10.98999977  50.33000183
C    20.89999962  11.69999981  51.20999908
C    19.50000000  11.97000027  50.79999924
C    15.24000072  12.13000107  49.95999908
C    14.60000038  12.71000004  51.14999771
C    13.31999969  13.15999985  51.18999863
C    23.18000031  10.54999924  50.65999985
H    23.59344292  10.93541336  51.59199905
H    18.77000046  12.92000008  52.69000244
H    17.26000023  10.80000019  48.43000031
H    19.55999947  10.11000061  47.83000183
H    21.78999901   9.98999977  48.30999756
H    21.34000015  12.07999992  52.11999893
H    12.79999924  13.60000038  52.02999878
H    23.09999847   9.47000027  50.81999969
H    23.88000107  10.71000004  49.81999969
S    11.87999916  11.77999973  47.70999908
C     9.32999992  12.53000069  48.40000153
C    10.65000057  12.51999950  48.74000168
C    11.07999992  13.00000000  50.00999832
C    10.17000008  13.42000008  50.97999954
C     8.80000019  13.45000076  50.68999863
C     7.88999987  13.96000004  51.59999847
C     6.60000038  14.04999924  51.26999664
C     6.17000008  13.73000050  49.98000336
C     7.03000021  13.28999996  49.06000137
C     8.40999985  13.05999947  49.36999893
C    12.53999901  12.86000061  50.11000061
C    13.09000015  12.18999958  48.94000244
C    14.44000053  11.97000027  48.82999802
C     4.75000000  14.06999969  49.50000000
H     4.46034813  13.51242065  48.60932159
H     9.00000000  12.15999985  47.43000031
H    10.57999992  13.80000019  51.91999817
H     8.31999969  14.37000084  52.50999832
H     6.03999996  14.72000027  51.91999817
H     6.63999987  13.10999966  48.06000137
H    14.88999939  11.59999943  47.90999985
H     4.73000002  15.11999989  49.18000031
H     4.13999987  13.85000038  50.38000107
