96

S    15.84000015  14.88999939  64.50000000
C    18.54999924  14.77000046  63.82999802
C    17.23999977  14.57999992  63.46000290
C    16.86000061  14.23999977  62.11999893
C    17.86000061  14.21000004  61.17000198
C    19.19000053  14.56999969  61.52000046
C    20.22999954  14.56999969  60.54999924
C    21.53000069  14.82999992  60.93000031
C    21.96000099  15.06999969  62.25999832
C    20.94000053  15.15999985  63.18000031
C    19.59000015  14.82999992  62.87000275
C    15.40999985  14.17000008  62.02000046
C    14.70000076  14.60999966  63.16999817
C    13.31999969  14.68000031  63.27000046
C    23.40999985  15.39000034  62.55000305
H    23.85745049  14.87862873  63.40228653
H    18.90999985  14.92000008  64.84999847
H    17.51000023  13.94000053  60.18000031
H    20.00000000  14.34000015  59.52000046
H    22.20999908  14.85999966  60.07999802
H    21.07000160  15.39000034  64.22999573
H    12.76000023  14.93000031  64.16999817
H    24.03000069  15.19999981  61.66999817
H    23.45999908  16.44000053  62.84000015
S    12.07999992  13.64999962  59.66999817
C     9.31999969  13.61999989  60.43000031
C    10.65000057  13.78000069  60.72000122
C    11.09000015  14.21000004  62.01000214
C    10.19999981  14.29999924  63.06000137
C     8.82999992  14.01999950  62.81000137
C     7.88000011  14.34000015  63.81000137
C     6.51999998  14.23999977  63.63999939
C     6.07999992  14.14000034  62.29000092
C     6.97000027  13.83999920  61.27999878
C     8.36999989  13.73000050  61.47999573
C    12.51999950  14.42999935  62.14000320
C    13.22000027  14.02999973  60.97999954
C    14.60999966  14.04000092  60.87999725
C     4.65000010  14.40999985  61.88000107
H     4.42282057  14.36030483  60.81509781
H     9.00000000  13.45000076  59.40000153
H    10.52000046  14.72000027  64.01000214
H     8.28999996  14.78000069  64.72000122
H     5.79999971  14.27000046  64.45000458
H     6.65999985  13.81999969  60.24000168
H    15.11000061  13.85000038  59.93999863
H     4.28999996  15.36000061  62.29999924
H     4.07000017  13.57999992  62.29000092
S    13.12999916  11.72999954  56.23000336
C    10.50000000  11.25000000  57.04000092
C    11.84999943  11.11999989  57.29000092
C    12.35999966  10.59999943  58.52000427
C    11.49000072  10.00000000  59.41999817
C    10.11000061  10.18000031  59.15000153
C     9.17000008   9.61000061  60.05000305
C     7.81000042   9.63000011  59.82999802
C     7.25000000  10.36000061  58.74000168
C     8.13000011  10.92000008  57.84000015
C     9.53999996  10.81999969  58.00000000
C    13.81000042  10.65000057  58.54999924
C    14.35999966  11.36999989  57.45999908
C    15.71000004  11.67000008  57.29999924
C     5.78999996  10.19000053  58.40999985
H     5.58947515  10.54808044  57.40021515
H    10.08999920  11.56999969  56.09000397
H    11.82000065   9.50000000  60.33000183
H     9.52999973   9.06000042  60.91999817
H     7.18999958   9.04999924  60.50000000
H     7.82999992  11.47999954  56.97000122
H    16.09000015  12.25999928  56.46999741
H     5.53999996   9.11999989  58.44999695
H     5.12000036  10.72000027  59.09999847
S    17.27000046  10.34000015  60.72000122
C    19.86999893  10.77999973  59.86000061
C    18.52000046  11.00999928  59.65999985
C    17.98999977  11.56000042  58.44999695
C    18.89999962  12.23999977  57.65999603
C    20.29000092  12.02999973  57.78999710
C    21.21000099  12.55000019  56.84000015
C    22.55000114  12.43000031  57.15000153
C    23.05999947  11.77000046  58.29000092
C    22.19000053  11.25000000  59.22000122
C    20.79000092  11.38000011  58.96999741
C    16.56999969  11.25000000  58.31999969
C    16.04999924  10.55999947  59.43999863
C    14.70000076  10.22999954  59.54999924
C    24.51999855  11.46000004  58.54000092
H    24.86222267  11.78083420  59.52389526
H    20.17000008  10.08999920  60.63999939
H    18.43000031  12.79000092  56.84999847
H    20.90999985  13.22999954  56.04000092
H    23.26000023  12.86000061  56.45000076
H    22.46000099  10.62999916  60.07999802
H    14.23999977   9.85000038  60.45000076
H    24.96999931  11.97999954  57.68000031
H    24.67000008  10.39000034  58.31999969
