96

S    15.65000057  15.21000004  64.59000397
C    18.36000061  15.43000031  63.88999939
C    17.06999969  15.11999989  63.53000259
C    16.67000008  14.67000008  62.22999954
C    17.70000076  14.37999916  61.35000229
C    19.04000092  14.72000027  61.59999847
C    20.03000069  14.51000023  60.59000015
C    21.35000038  14.80000019  60.86000061
C    21.61999893  15.32999992  62.15000153
C    20.72000122  15.54999924  63.16999817
C    19.36000061  15.27999973  62.88999939
C    15.24000072  14.46000004  62.04999924
C    14.56999969  14.67000008  63.29000092
C    13.19000053  14.70000076  63.34000015
C    23.08000183  15.62999916  62.37999725
H    23.46464729  14.96042728  63.14929581
H    18.59000015  15.95999908  64.80999756
H    17.50000000  13.89999962  60.38999939
H    19.73999977  14.22000027  59.59000015
H    22.10000038  14.63999939  60.08999634
H    21.00000000  15.95999908  64.13999939
H    12.71000004  14.85999966  64.31000519
H    23.68999863  15.62000084  61.46999741
H    23.00000000  16.60000038  62.88999939
S    12.03999996  13.97999954  59.58000183
C     9.35999966  13.66000080  60.27000046
C    10.64000034  13.99000072  60.66999817
C    11.00000000  14.27000046  62.02999878
C    10.00000000  14.42000008  62.97000122
C     8.65999985  14.14999962  62.60000229
C     7.57000017  14.26000023  63.50999832
C     6.28000021  13.92000008  63.15999985
C     6.07999992  13.30000019  61.90000153
C     7.07000017  13.17000008  60.96000290
C     8.38999939  13.59000015  61.31000137
C    12.43999958  14.40000057  62.19999695
C    13.12000084  14.19999981  60.97000122
C    14.50000000  14.22000027  60.89000320
C     4.65000010  12.89999962  61.60999680
H     4.25147915  13.46931553  60.77025986
H     9.04999924  13.27000046  59.31000137
H    10.25000000  14.75000000  63.97999573
H     7.88999987  14.65000057  64.47000122
H     5.52999973  14.30999947  63.85000229
H     6.84999990  12.97000027  59.92000198
H    14.93999958  14.14000034  59.89999771
H     4.09000015  13.34000015  62.44999695
H     4.51000023  11.82999992  61.42000198
S    16.52000046  15.31999969  57.97000122
C    19.12999916  15.70000076  57.11999893
C    17.82999992  15.40999985  56.77999878
C    17.38000107  15.13000011  55.45000076
C    18.36000061  15.10000038  54.47000122
C    19.72999954  15.26999950  54.78000259
C    20.82999992  15.29000092  53.86000061
C    22.11999893  15.62999916  54.15999985
C    22.43999863  16.01000023  55.48999786
C    21.45000076  15.98000050  56.45999908
C    20.13000107  15.55999947  56.12999725
C    15.93000031  15.14000034  55.34999847
C    15.34999943  15.22999954  56.63999939
C    13.96000004  15.31000042  56.75000000
C    23.82999802  16.44000053  55.89000320
H    24.20741272  15.82759476  56.70891571
H    19.34999847  16.02000046  58.13999939
H    18.22000122  14.84000015  53.43000031
H    20.52999878  15.22999954  52.81999969
H    22.92000008  15.46000004  53.44999695
H    21.57999992  16.32999992  57.48000336
H    13.43999958  15.54999924  57.67000198
H    24.47000122  16.43000031  55.00999832
H    23.78000069  17.52000046  56.11000061
S    12.63000011  14.77000046  53.02999878
C     9.98999977  14.34999943  53.88999939
C    11.28000069  14.68999958  54.19000244
C    11.69999981  14.88000011  55.54999924
C    10.75000000  14.92000008  56.53999710
C     9.36999989  14.73000050  56.25999832
C     8.34999943  14.70999908  57.23999786
C     7.03000021  14.48999977  56.91999817
C     6.74000025  14.00000000  55.61000061
C     7.68000031  13.94999981  54.61999893
C     9.00000000  14.40999985  54.91000366
C    13.14000034  15.06999969  55.63999939
C    13.76000023  15.00000000  54.36999893
C    15.14000034  15.01999950  54.20000076
C     5.28999996  13.57999992  55.45000076
H     4.76994610  14.32802391  54.85158157
H     9.72999954  13.96999931  52.90000153
H    10.98999977  15.27999973  57.54000092
H     8.56999969  15.10000038  58.23999786
H     6.26999950  14.73999977  57.64999771
H     7.50999975  13.73999977  53.55999756
H    15.46000004  15.07999992  53.15999985
H     4.78999996  13.38999939  56.39999771
H     5.25000000  12.61999989  54.93000031
