96

S    16.01000023  15.62999916  64.59000397
C    18.68000031  15.85000038  63.92000198
C    17.38999939  15.71000004  63.47000122
C    17.06999969  15.29000092  62.14000320
C    18.09999847  14.94999981  61.27999878
C    19.40999985  15.34999943  61.66999817
C    20.48999977  15.07999992  60.79000092
C    21.80999947  15.18000031  61.17000198
C    22.13999939  15.51000023  62.50999832
C    21.11999893  15.84000015  63.37999725
C    19.75000000  15.77000046  63.00000000
C    15.62999916  15.11999989  62.02000046
C    14.93000031  15.19999981  63.25000000
C    13.53999996  15.25000000  63.29999924
C    23.59000015  15.85000038  62.77999878
H    23.96657562  15.29579258  63.63973236
H    18.93000031  16.20000076  64.91999817
H    17.92000008  14.55000019  60.28999710
H    20.17000008  14.65999985  59.84000397
H    22.53000069  15.01000023  60.38000107
H    21.31000137  16.15999985  64.40000153
H    13.00000000  15.29999924  64.23999786
H    24.27999878  15.85999966  61.93000031
H    23.59999847  16.92000008  63.04999924
S    12.30999947  14.59000015  59.58000183
C     9.55000019  14.53999996  60.27999878
C    10.86999989  14.72000027  60.61000061
C    11.35000038  15.05000019  61.91999817
C    10.36999893  15.26000023  62.87000275
C     9.00000000  14.96999931  62.67000198
C     7.96999979  15.06999969  63.64999771
C     6.69000053  14.63000107  63.36000061
C     6.32000017  14.13000011  62.09000015
C     7.30000019  14.06999969  61.11000061
C     8.60999966  14.57999992  61.33999634
C    12.79000092  15.11000061  62.14000320
C    13.45999908  14.88999939  60.90000153
C    14.85000038  14.85000038  60.89000320
C     4.96000004  13.59000015  61.72999954
H     4.37426376  14.30431271  61.15140533
H     9.31999969  14.11999893  59.31000137
H    10.72000027  15.48999977  63.87000275
H     8.10000038  15.67999935  64.52999878
H     5.98000002  14.68999958  64.18000031
H     7.07999992  13.68999958  60.12000275
H    15.31999969  14.78000069  59.92000198
H     4.44999981  13.27000046  62.63999939
H     5.13000011  12.69000053  61.11999893
S    16.36000061  16.10999870  57.94000244
C    18.89000130  16.56999969  56.93000031
C    17.64999962  16.01000023  56.72999954
C    17.27000046  15.36000061  55.52000046
C    18.22999954  15.14999962  54.54999924
C    19.50000000  15.77000046  54.68000031
C    20.58000183  15.47999954  53.80000305
C    21.88999939  15.88000107  53.96999741
C    22.17000008  16.48999977  55.21999741
C    21.21000099  16.79999924  56.16000366
C    19.86999893  16.39000130  55.91999817
C    15.81999969  15.18000031  55.50000000
C    15.19999981  15.65999985  56.66999817
C    13.81999969  15.88000107  56.70000076
C    23.59000015  16.72999954  55.66999817
H    23.98126221  15.97593117  56.35293198
H    19.07999992  17.06999969  57.88000107
H    18.01000023  14.55999947  53.66000366
H    20.43000031  14.73000050  53.02999878
H    22.70999908  15.59000015  53.31999969
H    21.40999985  17.07999992  57.18999863
H    13.36999989  16.13000107  57.64999771
H    24.18999863  16.81999969  54.75999832
H    23.64000130  17.70000076  56.18000031
S    12.53999901  14.55000019  53.22999954
C     9.82999992  14.60999966  54.02999878
C    11.14999962  14.92000008  54.27000046
C    11.57999992  15.47999954  55.52000046
C    10.67000008  15.67999935  56.52999878
C     9.31999969  15.31000042  56.32999802
C     8.31999969  15.48999977  57.32999802
C     7.00000000  15.26000023  57.02000046
C     6.61000013  14.63999939  55.80999756
C     7.55000019  14.30999947  54.86999893
C     8.90999985  14.70000076  55.10000229
C    13.03999996  15.52999973  55.59000015
C    13.71000099  15.21000004  54.38999939
C    15.06999969  14.92000008  54.34000015
C     5.14999962  14.34999943  55.51000214
H     4.77144718  14.80712032  54.59576035
H     9.48999977  14.17000008  53.09000015
H    11.03999996  16.14999962  57.43999863
H     8.57999992  15.90000057  58.29999924
H     6.28999996  15.42000008  57.84000015
H     7.25000000  13.86999989  53.93000031
H    15.44000053  14.35999966  53.48999786
H     4.61000013  14.60000038  56.44000244
H     4.92999983  13.27999973  55.40000153
