96

S    15.64000034  15.22999954  64.65000153
C    18.37000084  15.06000042  64.02999878
C    17.05999947  14.80999947  63.67000198
C    16.62999916  14.32000065  62.39999771
C    17.63000107  14.15999985  61.45999908
C    19.00000000  14.34000015  61.75000000
C    19.95000076  14.52999973  60.70000076
C    21.22999954  14.91000080  61.02000427
C    21.71999931  15.03000069  62.35000229
C    20.73999786  15.06000042  63.30999756
C    19.37000084  14.75999928  63.08000183
C    15.19999981  14.42999935  62.15000153
C    14.52000046  14.81999969  63.34000015
C    13.14000034  15.01000023  63.27999878
C    23.12999916  15.47000027  62.69000244
H    23.60206413  14.81196880  63.41955566
H    18.67000008  15.54999924  64.95999908
H    17.35000038  14.29999924  60.41999817
H    19.64999962  14.30999947  59.68000031
H    21.86000061  14.94999981  60.13999939
H    21.04999924  15.44000053  64.27999878
H    12.48999977  15.21999931  64.12000275
H    23.77000046  15.47000027  61.79000092
H    23.09000015  16.50000000  63.06000137
S    12.15000057  13.94999981  59.54000092
C     9.48000050  13.60999966  60.34999847
C    10.77000046  14.00000000  60.65000153
C    11.03999996  14.42000008  61.98999786
C    10.01999950  14.55000019  62.91999817
C     8.67000008  14.32999992  62.56999969
C     7.59000015  14.53999996  63.47999954
C     6.28999996  14.26000023  63.13999939
C     6.06999969  13.56999969  61.91999817
C     7.05999947  13.42000008  60.97999954
C     8.40999985  13.76000023  61.26999664
C    12.46999931  14.68999958  62.09999847
C    13.17999935  14.44000053  60.90000153
C    14.56999969  14.30999947  60.90999985
C     4.73000002  12.98999977  61.52999878
H     4.10657692  13.69843578  60.98450470
H     9.39999962  13.15000057  59.36999893
H    10.13000011  14.89999962  63.94000244
H     7.88000011  14.85999966  64.47999573
H     5.51000023  14.42000008  63.88000107
H     6.89000034  12.89000034  60.05000305
H    15.03000069  14.17000008  59.93000031
H     4.32999992  12.69000053  62.50999832
H     4.90000010  12.05999947  60.97999954
S    12.53000069  11.59000015  56.38000107
C     9.85000038  11.23000050  57.18999863
C    11.19999981  11.13000011  57.44999695
C    11.63000011  10.59000015  58.69999695
C    10.75000000   9.94999981  59.54999924
C     9.35999966  10.06000042  59.29000092
C     8.46000004   9.48000050  60.21999741
C     7.11000013   9.44000053  59.93999863
C     6.63999987  10.00000000  58.72000122
C     7.48000050  10.70000076  57.88999939
C     8.89000034  10.72000027  58.09999847
C    13.07000065  10.80999947  58.86000061
C    13.68000031  11.38000011  57.71999741
C    15.01999950  11.76000023  57.69000244
C     5.21000004   9.72000027  58.30999756
H     4.77508879  10.39019108  57.56851578
H     9.55999947  11.82000065  56.31999969
H    11.10999966   9.43000031  60.43000031
H     8.85999966   8.88000011  61.03000259
H     6.51000023   8.92000008  60.68000031
H     7.09999990  11.05000019  56.93999863
H    15.42000008  12.05999947  56.72000122
H     5.10999966   8.67999935  57.97000122
H     4.61000013   9.78999996  59.22999954
S    16.44000053  10.46000004  61.18999863
C    19.09000015  10.72000027  60.38000107
C    17.76000023  10.77999973  60.05000305
C    17.27000046  11.40999985  58.86000061
C    18.22999954  11.79999924  57.93000031
C    19.61000061  11.64999962  58.16999817
C    20.61000061  12.18999958  57.30999756
C    21.94999886  12.03999996  57.56999969
C    22.39999962  11.44999981  58.79000092
C    21.45999908  11.00999928  59.68999863
C    20.06999969  11.09000015  59.40999985
C    15.81999969  11.38000011  58.76999664
C    15.24000072  10.81999969  59.93000031
C    13.86000061  10.62000084  60.00000000
C    23.85999870  11.09000015  58.95999908
H    24.10851860  11.31721783  59.99668121
H    19.40000153  10.46000004  61.38999939
H    17.86000061  12.25999928  57.02000046
H    20.28000069  12.58999920  56.35000229
H    22.67999840  12.18000031  56.77999878
H    21.70000076  10.60999966  60.66999817
H    13.42000008  10.10000038  60.84000015
H    24.54000092  11.67000008  58.33000183
H    24.03000069  10.01999950  58.81000137
