96

S    15.77000046  15.73999977  64.16999817
C    18.51000023  15.95999908  63.31999969
C    17.17000008  15.73999977  63.09000015
C    16.87000084  15.34999943  61.73999786
C    17.81999969  15.06999969  60.77999878
C    19.19000053  15.32999992  61.05999756
C    20.15999985  15.03999901  60.06999969
C    21.45999908  15.36000061  60.38000107
C    21.88999939  15.80999947  61.65999985
C    20.94000053  16.02000046  62.63000107
C    19.55999947  15.78999996  62.37999725
C    15.42000008  15.29999924  61.59000015
C    14.68000031  15.44000053  62.78999710
C    13.30000019  15.55999947  62.84000015
C    23.34000015  16.05999947  62.02000046
H    23.67483711  15.43307209  62.84640503
H    18.70000076  16.36999893  64.31000519
H    17.57999992  14.68999958  59.79000092
H    19.86999893  14.73999977  59.06000137
H    22.20999908  15.34999943  59.59999847
H    21.25000000  16.25000000  63.63999939
H    12.69999981  15.67000008  63.73000336
H    23.98999977  16.05999947  61.12999725
H    23.47999954  17.10000038  62.31999969
S    12.15999985  14.42000008  59.22999954
C     9.48999977  14.37000084  59.92000198
C    10.75000000  14.80000019  60.25000000
C    11.11999989  15.26999950  61.55000305
C    10.06000042  15.32999992  62.43999863
C     8.71999931  14.96999931  62.15000153
C     7.67000008  14.89999962  63.11000061
C     6.38000011  14.70999908  62.70000076
C     6.02999973  14.45000076  61.33999634
C     7.05999947  14.25000000  60.45999908
C     8.39999962  14.56999969  60.79999924
C    12.56999969  15.34000015  61.66999817
C    13.27999973  14.85999966  60.54000092
C    14.67000008  14.91000080  60.47999954
C     4.61000013  14.15999985  60.91999817
H     4.34766865  14.69175339  60.00538254
H     9.32999992  13.71999931  59.06000137
H    10.34999943  15.55999947  63.46000290
H     8.01000023  14.98999977  64.13999939
H     5.69999981  14.65999985  63.54000092
H     6.88000011  13.85000038  59.45999908
H    15.18000031  14.73000050  59.54000092
H     3.84000015  14.37000084  61.66999817
H     4.59999990  13.07000065  60.83000183
S    12.82999992  11.80999947  56.32999802
C    10.15999985  11.69999981  57.09999847
C    11.46999931  11.42000008  57.39999771
C    11.90999985  11.03999996  58.70999908
C    10.93999958  10.77000046  59.65999985
C     9.57999992  10.95000076  59.31999969
C     8.56999969  10.51000023  60.21999741
C     7.25000000  10.48999977  59.86000061
C     6.78999996  10.95000076  58.60000229
C     7.73000002  11.51999950  57.77000046
C     9.13000011  11.39999962  58.02999878
C    13.35999966  11.18000031  58.82999802
C    13.99000072  11.64000034  57.64999771
C    15.29999924  12.13000107  57.62000275
C     5.29999971  10.80999947  58.36999893
H     5.04297972  11.11699677  57.35619736
H     9.94999981  12.13000107  56.12999725
H    11.23000050  10.32999992  60.61000061
H     8.96000004  10.05000019  61.12999725
H     6.57999992  10.13000011  60.63999939
H     7.50000000  11.95000076  56.79999924
H    15.72999954  12.39999962  56.65999985
H     5.00999975   9.77000046  58.56999969
H     4.75000000  11.44000053  59.09000015
S    16.67000008  10.81999969  61.10000229
C    19.34999847  11.42000008  60.45999908
C    18.01000023  11.46999931  60.13999939
C    17.56999969  11.84000015  58.82999802
C    18.53999901  12.10000038  57.88000107
C    19.93000031  12.07999992  58.15000153
C    20.86000061  12.20999908  57.08000183
C    22.19000053  12.00000000  57.32999802
C    22.65000153  11.82000065  58.66000366
C    21.73999977  11.59999943  59.66999817
C    20.34000015  11.71000004  59.47999954
C    16.11999893  11.84999943  58.72000122
C    15.50000000  11.26999950  59.85000229
C    14.14000034  10.98000050  59.97000122
C    24.13000107  11.68000031  58.96999741
H    24.37281990  11.84425926  60.01983643
H    19.62000084  11.02000046  61.43000031
H    18.26000023  12.17000008  56.83000183
H    20.52999878  12.44999981  56.06999969
H    22.93999863  11.94000053  56.55000305
H    21.94999886  11.25000000  60.68000031
H    13.71999931  10.46000004  60.83000183
H    24.65999985  12.46000099  58.40999985
H    24.54999924  10.75000000  58.55999756
