96

S    16.00000000  15.06999969  64.45000458
C    18.73999977  15.07999992  63.86000061
C    17.45000076  14.86999989  63.44999695
C    17.09000015  14.40999985  62.14000320
C    18.15000153  14.19000053  61.26999664
C    19.50000000  14.44000053  61.60999680
C    20.50000000  14.32000065  60.61000061
C    21.75000000  14.67000008  61.04999924
C    22.06000137  15.47999954  62.18000031
C    21.07000160  15.55999947  63.13000107
C    19.78000069  15.00000000  62.90000153
C    15.65999985  14.27000046  61.93999863
C    14.94999981  14.77000046  63.06000137
C    13.56999969  14.98000050  63.09000015
C    23.46999931  15.93999958  62.43999863
H    24.05302620  15.42096424  63.20077515
H    18.90999985  15.52999973  64.84000397
H    17.79000092  13.73999977  60.34999847
H    20.19000053  14.21000004  59.56999969
H    22.50999832  14.39000034  60.33000183
H    21.24000168  16.03000069  64.09999847
H    13.03999996  15.03000069  64.02999878
H    23.88999939  15.90999985  61.43000031
H    23.46999931  17.02999878  62.55000305
S    12.48999977  13.96000004  59.43000031
C     9.73999977  13.83999920  60.00000000
C    11.00999928  14.26000023  60.35999680
C    11.38000011  14.56999969  61.70000076
C    10.32999992  14.67000008  62.60000229
C     8.97000027  14.47000027  62.25000000
C     7.82999992  14.65999985  63.08000183
C     6.52999973  14.37000084  62.77000046
C     6.28999996  13.82999992  61.47999573
C     7.35000038  13.56999969  60.63000107
C     8.69000053  13.90999985  60.94999695
C    12.81000042  14.63000107  61.97000122
C    13.53000069  14.11000061  60.86000061
C    14.91000080  13.92000008  60.80999756
C     4.90000010  13.36999989  61.11000061
H     4.47284126  14.04633522  60.36959076
H     9.61000061  13.52000046  58.96999741
H    10.64000034  15.06000042  63.55999756
H     8.14000034  15.03999901  64.05999756
H     5.73999977  14.45000076  63.50999832
H     7.25000000  13.15999985  59.62999725
H    15.39000034  13.80000019  59.84000397
H     4.23999977  13.47000027  61.97999954
H     4.99000025  12.30999947  60.83000183
S    12.94000053  11.92000008  56.04999924
C    10.25000000  11.38000011  56.63000107
C    11.57999992  11.23000050  56.95999908
C    12.02000046  10.70000076  58.22000122
C    11.10999966  10.31999969  59.18000031
C     9.75000000  10.62000084  58.90999603
C     8.71999931  10.17000008  59.79000092
C     7.40000010  10.17000008  59.40999985
C     6.96000004  10.88999939  58.26000214
C     7.92000008  11.28000069  57.36000061
C     9.30000019  11.02000046  57.61000061
C    13.47000027  10.77999973  58.36999893
C    14.09999943  11.49000072  57.31999969
C    15.44000053  11.82000065  57.39999771
C     5.46999979  11.14999962  58.11999893
H     5.19226360  10.82953548  57.11587524
H     9.92000008  11.72999954  55.65000153
H    11.35000038   9.84000015  60.12000275
H     9.09000015   9.70000076  60.68999863
H     6.63999987   9.67000008  60.00000000
H     7.67000008  11.94000053  56.52999878
H    15.85000038  12.35999966  56.55000305
H     4.96000004  10.59999943  58.92000198
H     5.32000017  12.23000050  58.26000214
S    16.86000061   9.96000004  60.56000137
C    19.51000023  10.67000008  59.88999939
C    18.17000008  10.64000034  59.58000183
C    17.71000099  11.33999920  58.41999817
C    18.63000107  11.84999943  57.51999664
C    20.02000046  11.75000000  57.72999573
C    21.01000023  12.30999947  56.86999893
C    22.34000015  12.11999989  57.14000320
C    22.78000069  11.46999931  58.33000183
C    21.86000061  11.00000000  59.23999786
C    20.46999931  11.13000011  58.95000076
C    16.25000000  11.28000069  58.40000153
C    15.60999966  10.57999992  59.45999908
C    14.25000000  10.31999969  59.43999863
C    24.23999977  11.13999939  58.50999832
H    24.46765900  11.34631443  59.55580139
H    19.88999939  10.15999985  60.77999878
H    18.26000023  12.38999939  56.65000153
H    20.73999786  12.76999950  55.91999817
H    23.12999916  12.50000000  56.50000000
H    22.18000031  10.44000053  60.11000061
H    13.78999901   9.80000019  60.27999878
H    24.70000076  11.85999966  57.81999969
H    24.53000069  10.13000011  58.18999863
