96

S    16.25000000  15.27999973  64.00000000
C    18.89999962  15.39999962  63.18999863
C    17.61000061  15.06000042  62.88000107
C    17.20999908  14.61999989  61.56999969
C    18.17000008  14.52999973  60.58000183
C    19.52000046  14.84000015  60.84999847
C    20.50000000  14.60999966  59.84000397
C    21.80000114  14.91000080  60.13999939
C    22.15999985  15.52999973  61.37000275
C    21.22999954  15.69000053  62.36000061
C    19.88000107  15.26999950  62.16999817
C    15.77000046  14.45000076  61.45000076
C    15.15999985  14.88999939  62.65999603
C    13.78000069  14.96999931  62.83000183
C    23.61000061  15.78999996  61.72999954
H    23.97344208  15.46931553  62.70630646
H    19.12999916  15.93999958  64.09999847
H    17.94999886  14.07999992  59.61999893
H    20.20000076  14.21000004  58.87000275
H    22.56000137  14.52999973  59.45999908
H    21.48999977  15.98000050  63.37999725
H    13.27000046  15.25000000  63.74000168
H    24.33000183  15.36999893  61.02000427
H    23.68999863  16.87000084  61.60999680
S    12.41000080  13.85000038  59.22999954
C     9.77000046  13.71999931  60.13999939
C    11.07999992  14.02999973  60.40000153
C    11.51999950  14.34999943  61.72000122
C    10.62999916  14.42999935  62.77999878
C     9.26000023  14.19000053  62.55000305
C     8.25000000  14.44000053  63.53000259
C     6.90999985  14.26000023  63.26000214
C     6.51999998  13.81000042  61.97000122
C     7.44999981  13.71000099  60.96000290
C     8.85000038  13.83999920  61.22000122
C    12.96000004  14.60000038  61.76000214
C    13.55999947  14.22999954  60.52999878
C    14.93000031  14.09999943  60.38999939
C     5.19000006  13.22000027  61.56999969
H     4.78524208  13.73127365  60.69657516
H     9.52999973  13.43999958  59.12000275
H    10.97000027  14.72000027  63.76999664
H     8.52000046  14.77000046  64.52999878
H     6.19999981  14.47000027  64.05000305
H     7.25000000  13.30000019  59.98000336
H    15.31999969  13.81000042  59.40999985
H     4.65000010  13.38000107  62.51999664
H     5.27999973  12.15999985  61.32999802
S    16.10999870  15.53999996  57.60000229
C    18.78999901  15.78999996  56.84999847
C    17.53000069  15.31000042  56.56000137
C    17.21999931  14.78999996  55.27000046
C    18.25000000  14.61999989  54.36999893
C    19.55999947  15.08999920  54.64000320
C    20.65000153  14.81999969  53.75999832
C    21.94000053  15.14000034  54.10999680
C    22.27999878  15.64000034  55.40000153
C    21.21000099  15.98999977  56.19999695
C    19.85000038  15.67999935  55.90999985
C    15.77000046  14.68999958  55.12000275
C    15.03000069  15.07999992  56.25999832
C    13.63999939  15.08999920  56.31999969
C    23.69999886  16.01000023  55.76000214
H    24.15493774  15.29205036  56.44240952
H    18.90999985  16.31000137  57.80000305
H    17.97999954  14.21000004  53.40000153
H    20.50000000  14.18000031  52.88999939
H    22.80999947  15.00000000  53.47999954
H    21.48999977  16.47999954  57.12999725
H    13.09000015  15.44000053  57.18999863
H    24.34000015  15.98999977  54.86999893
H    23.78999901  17.01000023  56.20999908
S    12.56999969  14.09000015  52.60000229
C     9.81999969  14.21000004  53.15000153
C    11.11999989  14.32999992  53.60000229
C    11.47999954  14.67000008  54.93999863
C    10.47000027  14.93000031  55.84999847
C     9.17000008  14.48999977  55.54000092
C     8.15999985  14.55999947  56.53999710
C     6.84999990  14.34000015  56.18000031
C     6.54999971  13.86000061  54.86999893
C     7.50000000  13.78999901  53.88000107
C     8.85000038  14.14999962  54.16999817
C    12.90999985  14.70999908  55.18000031
C    13.61999989  14.39000034  54.00000000
C    15.01000023  14.34999943  53.99000168
C     5.13000011  13.45999908  54.54999924
H     4.76910257  14.13225937  53.77159119
H     9.67000008  13.80000019  52.15000153
H    10.67999935  15.39999962  56.81000137
H     8.38999939  15.07999992  57.47000122
H     6.01999998  14.61999989  56.83000183
H     7.27999973  13.48000050  52.87000275
H    15.59999943  14.04999924  53.13000107
H     4.55999994  13.73999977  55.45000076
H     5.03999996  12.39999962  54.31000137
