96

S    16.38000107  15.15999985  64.52000427
C    19.04000092  15.15999985  63.63999939
C    17.71999931  14.88999939  63.39000320
C    17.29999924  14.39000034  62.11000061
C    18.25000000  14.19000053  61.12999725
C    19.62000084  14.47000027  61.37000275
C    20.66999817  14.25000000  60.44000244
C    22.01000023  14.48999977  60.65000153
C    22.34000015  15.00000000  61.93000031
C    21.42000008  15.14999962  62.95000076
C    20.05000114  14.91000080  62.67000198
C    15.85000038  14.27999973  62.05999756
C    15.21999931  14.70999908  63.25000000
C    13.83999920  14.88999939  63.30999756
C    23.74000168  15.44999981  62.30999756
H    24.24610901  14.88686466  63.09411240
H    19.47000122  15.53999996  64.56999969
H    18.00000000  13.50999928  60.31999969
H    20.28000069  13.88000011  59.50000000
H    22.75000000  14.34000015  59.86999893
H    21.68000031  15.59000015  63.90999603
H    13.12999916  15.21999931  64.05000305
H    24.41999817  15.47999954  61.45000076
H    23.62999916  16.50000000  62.58999634
S    12.71000004  13.76000023  59.61999893
C    10.00000000  13.78999901  60.31999969
C    11.31000042  13.97999954  60.68999863
C    11.68000031  14.51000023  61.97000122
C    10.77000046  14.59000015  63.00000000
C     9.44000053  14.21000004  62.70999908
C     8.43000031  14.37000084  63.69999695
C     7.11000013  14.13000011  63.40999985
C     6.77999973  13.63999939  62.11999893
C     7.69999981  13.48999977  61.10000229
C     9.04999924  13.82999992  61.37000275
C    13.12000084  14.59000015  62.14000320
C    13.78999901  14.19000053  60.96000290
C    15.15999985  13.96999931  60.87999725
C     5.32999992  13.63000011  61.70000076
H     5.16670084  13.97079849  60.67760849
H     9.76000023  13.40999985  59.33000183
H    10.98000050  14.78000069  64.05000305
H     8.80000019  14.77000046  64.65000153
H     6.34999990  14.46000004  64.09999847
H     7.26999998  13.22999954  60.13999939
H    15.55999947  13.76000023  59.89999771
H     4.78999996  14.19000053  62.47000122
H     4.82999992  12.65999985  61.81000137
S    13.02000046  11.54000092  56.12999725
C    10.44000053  11.26999950  57.08000183
C    11.77999973  11.13000011  57.32999802
C    12.22000027  10.60999966  58.59000397
C    11.36000061  10.11999989  59.55999756
C     9.96999931  10.17000008  59.27999878
C     9.01000023   9.61000061  60.18000031
C     7.68000031   9.65999985  59.81999969
C     7.20000029  10.17000008  58.59000397
C     8.14000034  10.77000046  57.77999878
C     9.52999973  10.80000019  58.06000137
C    13.68000031  10.62000084  58.56999969
C    14.22000027  11.25000000  57.41000366
C    15.59000015  11.40999985  57.29999924
C     5.73000002   9.96000004  58.29000092
H     5.50299406  10.26503944  57.26847458
H    10.06999969  11.71000004  56.16000366
H    11.77999973   9.70000076  60.45999908
H     9.26999950   9.07999992  61.09000397
H     6.89000034   9.11999989  60.34000015
H     7.88000011  11.06999969  56.76000214
H    16.04999924  11.84000015  56.42000198
H     5.45000029   8.89999962  58.36000061
H     5.22000027  10.57999992  59.03999710
S    17.04000092   9.86999989  60.65999985
C    19.68000031  10.47000027  60.00999832
C    18.35000038  10.52999973  59.66999817
C    17.86999893  11.23999977  58.52000427
C    18.73999977  11.87999916  57.65999603
C    20.10999870  11.87999916  58.00000000
C    21.07000160  12.44999981  57.11000061
C    22.40999985  12.31999969  57.37999725
C    22.81999969  11.51000023  58.47999954
C    21.96000099  10.85000038  59.33000183
C    20.58000183  11.10999966  59.12000275
C    16.42000008  11.18999958  58.40999985
C    15.85000038  10.57000065  59.54999924
C    14.50000000  10.22999954  59.62999725
C    24.27999878  11.19999981  58.68999863
H    24.59393883  11.69231415  59.61041641
H    20.12000084   9.89999962  60.81999969
H    18.44000053  12.35999966  56.72999954
H    20.72999954  12.96000004  56.20999908
H    23.13999939  12.65999985  56.65000153
H    22.21999931  10.11999989  60.10000229
H    14.02999973   9.82999992  60.52000046
H    24.89000130  11.51999950  57.83000183
H    24.44000053  10.11999989  58.63999939
