96

S    16.05999947  15.38000011  64.31999969
C    18.81000137  15.24000072  63.61999893
C    17.47999954  15.15999985  63.27999878
C    17.13000107  14.93999958  61.90999985
C    18.09999847  14.65000057  60.96000290
C    19.47000122  14.77000046  61.30000305
C    20.48999977  14.61999989  60.31999969
C    21.80999947  14.85000038  60.63000107
C    22.19000053  15.19000053  61.95999908
C    21.19999886  15.46000004  62.87000275
C    19.81999969  15.19999981  62.63000107
C    15.69000053  14.75000000  61.77999878
C    14.96000099  15.06999969  62.95999908
C    13.57999992  14.96000099  63.02000046
C    23.61999893  15.43000031  62.36000061
H    24.02417374  14.78473949  63.13998795
H    19.10000038  15.48999977  64.63999939
H    17.95999908  14.65999985  59.88999939
H    20.10999870  14.56999969  59.29999924
H    22.52000046  14.98999977  59.82999802
H    21.45000076  15.88000107  63.83999634
H    13.14000034  15.01999950  64.01000214
H    24.25000000  15.42000008  61.46999741
H    23.64999962  16.38000107  62.90000153
S    12.53999901  14.06999969  59.29999924
C     9.81000042  13.81999969  60.04000092
C    11.09000015  14.25000000  60.31000137
C    11.43000031  14.61999989  61.65000153
C    10.38000011  14.70000076  62.55000305
C     9.02999973  14.37000084  62.29000092
C     8.01000023  14.40999985  63.27999878
C     6.75000000  13.92000008  63.04999924
C     6.42000008  13.47000027  61.73999786
C     7.39000034  13.48999977  60.77000046
C     8.73999977  13.90999985  60.96000290
C    12.86999893  14.73000050  61.84000015
C    13.60999966  14.47999954  60.65000153
C    14.98999977  14.40000057  60.61999893
C     5.03000021  12.97999954  61.43000031
H     4.55367517  13.74069691  60.81148911
H     9.61999989  13.32999992  59.09000015
H    10.62999916  14.96999931  63.57999802
H     8.27000046  14.57999992  64.31999969
H     6.07999992  13.78999901  63.89999771
H     7.23999977  12.96000004  59.82999802
H    15.47999954  14.26000023  59.65999985
H     4.48999977  12.72999954  62.35000229
H     5.03999996  12.09000015  60.79000092
S    16.06999969  15.95000076  57.62000275
C    18.86000061  16.03000069  57.09000015
C    17.57999992  15.72999954  56.70000076
C    17.29999924  15.32999992  55.34999847
C    18.30999947  15.13000011  54.43999863
C    19.61000061  15.59999943  54.75000000
C    20.72999954  15.43000031  53.88999939
C    22.01000023  15.70000076  54.29999924
C    22.27000046  16.17000008  55.61999893
C    21.21999931  16.26000023  56.50000000
C    19.88000107  15.98000050  56.11000061
C    15.86999989  15.25000000  55.07999802
C    15.06999969  15.47000027  56.24000168
C    13.68000031  15.44999981  56.30000305
C    23.62999916  16.64999962  56.07999802
H    24.08493805  15.96759319  56.79794693
H    19.04999924  16.26000023  58.13999939
H    18.09000015  14.53999996  53.54999924
H    20.55999947  15.22999954  52.83000183
H    22.79999924  15.59999943  53.55999756
H    21.50000000  16.54999924  57.51999664
H    13.12999916  15.55999947  57.22999954
H    24.27999878  16.95000076  55.25000000
H    23.45000076  17.59000015  56.62000275
S    12.75000000  14.37999916  52.56999969
C    10.00000000  14.37999916  53.22000122
C    11.31999969  14.47999954  53.60000229
C    11.65999985  14.84000015  54.94999695
C    10.67999935  15.01999950  55.90999985
C     9.35000038  14.70999908  55.56000137
C     8.32999992  15.01999950  56.50000000
C     7.03000021  14.65000057  56.22000122
C     6.65000010  14.25000000  54.92000198
C     7.59999990  14.13000011  53.94000244
C     8.97999954  14.40000057  54.20000076
C    13.07999992  15.14000034  55.07999802
C    13.81999969  14.85000038  53.90999603
C    15.21000004  14.85000038  53.90999603
C     5.21000004  13.81999969  54.68999863
H     4.79038906  14.51698112  53.96457291
H     9.70000076  14.04999924  52.22999954
H    10.95999908  15.34999943  56.90999985
H     8.65999985  15.39999962  57.47000122
H     6.30000019  14.75999928  57.02000046
H     7.40000010  13.67000008  52.97000122
H    15.80999947  14.75000000  53.01000214
H     4.67000008  13.71000099  55.63999939
H     5.29999971  12.84999943  54.20000076
