96

S    16.35000038  15.95000076  64.31000519
C    19.05999947  15.80000019  63.68000031
C    17.75000000  15.62999916  63.27000046
C    17.38000107  15.14000034  61.97999954
C    18.38999939  14.80999947  61.10000229
C    19.75000000  14.94999981  61.45000076
C    20.82999992  14.89999962  60.52000046
C    22.10000038  15.25000000  60.87999725
C    22.39000130  15.81999969  62.15000153
C    21.35999870  16.06999969  63.02999878
C    20.06999969  15.57000065  62.70999908
C    15.93000031  15.00000000  61.86999893
C    15.22999954  15.39000034  63.04000092
C    13.85000038  15.50000000  63.04999924
C    23.78000069  16.29999924  62.50000000
H    24.22264671  15.63603115  63.24250412
H    19.36000061  16.17000008  64.66000366
H    18.20999908  14.61999989  60.04000092
H    20.65000153  14.61999989  59.48999786
H    22.93000031  15.01999950  60.21999741
H    21.44000053  16.69999886  63.90999603
H    13.38999939  15.98000050  63.89999771
H    24.37999916  16.44000053  61.59000015
H    23.71999931  17.31999969  62.90000153
S    12.69000053  14.34999943  59.45999908
C    10.00000000  14.22999954  60.31000137
C    11.31000042  14.55999947  60.54999924
C    11.65999985  14.96999931  61.88000107
C    10.64000034  15.14000034  62.80000305
C     9.27999973  14.86999989  62.55000305
C     8.25000000  14.81999969  63.54000092
C     6.94999981  14.50000000  63.23999786
C     6.65000010  14.00000000  61.95000076
C     7.59999990  14.01999950  60.94999695
C     8.94999981  14.32999992  61.25999832
C    13.10999966  15.01999950  61.95999908
C    13.82999992  14.72000027  60.77000046
C    15.21000004  14.68999958  60.70999908
C     5.25000000  13.60999966  61.52000046
H     4.95778990  14.16591167  60.62911606
H     9.84000015  13.83999920  59.31000137
H    10.95999908  15.39999962  63.81000137
H     8.48999977  15.06999969  64.56999969
H     6.14000034  14.55000019  63.96999741
H     7.32999992  13.73000050  59.93999863
H    15.75000000  14.29999924  59.85000229
H     4.55000019  13.60000038  62.36999893
H     5.38000011  12.56000042  61.20999908
S    16.70999908  15.98000050  57.90000153
C    19.40999985  16.07999992  57.23999786
C    18.12000084  15.86999989  56.83000183
C    17.79000092  15.44999981  55.50000000
C    18.78999901  15.36000061  54.54999924
C    20.13000107  15.67000008  54.89999771
C    21.21000099  15.64000034  53.97999573
C    22.49000168  15.93999958  54.38999939
C    22.81999969  16.39000130  55.68999863
C    21.77000046  16.39000130  56.58000183
C    20.43000031  16.02000046  56.25999832
C    16.35000038  15.34000015  55.35999680
C    15.62999916  15.72999954  56.52000046
C    14.25000000  15.84000015  56.59999847
C    24.20999908  16.87999916  56.00999832
H    24.69772911  16.12366676  56.62496185
H    19.71999931  16.45000076  58.22000122
H    18.59000015  15.06999969  53.52000427
H    21.02999878  15.36999893  52.94000244
H    23.34000015  16.09000015  53.72000122
H    21.97000122  16.67000008  57.61000061
H    13.81999969  15.93999958  57.58999634
H    24.70999908  17.23999977  55.10000229
H    24.09000015  17.79999924  56.59999847
S    13.19000053  14.70999908  52.95999908
C    10.51000023  14.63999939  53.53000259
C    11.77000046  15.00000000  53.96999741
C    12.10000038  15.59000015  55.24000168
C    11.05999947  15.69000053  56.13999939
C     9.75000000  15.29000092  55.77000046
C     8.71000004  15.38000011  56.73999786
C     7.46999979  14.93000031  56.35000229
C     7.17000008  14.37000084  55.07999802
C     8.13000011  14.37999916  54.09999847
C     9.44999981  14.75999928  54.47000122
C    13.53999996  15.57000065  55.41999817
C    14.27999973  15.21000004  54.27000046
C    15.65999985  15.03999901  54.18000031
C     5.72000027  14.06000042  54.75999832
H     5.36425447  14.72168732  53.97024155
H    10.26999950  14.26000023  52.54000092
H    11.31000042  15.90000057  57.18000031
H     9.01000023  15.80999947  57.69000244
H     6.63999987  15.00000000  57.04999924
H     7.90999985  14.19999981  53.04999924
H    16.10000038  14.68000031  53.26000214
H     5.21000004  14.45000076  55.65000153
H     5.52999973  13.02000046  54.47999954
