96

S    15.67999935  15.15999985  64.52999878
C    18.39999962  15.21999931  63.79000092
C    17.09000015  14.96999931  63.47000122
C    16.75000000  14.52999973  62.15000153
C    17.75000000  14.28999996  61.23000336
C    19.11000061  14.51000023  61.52999878
C    20.06999969  14.51000023  60.47999954
C    21.40999985  14.73999977  60.72999954
C    21.73999977  15.26999950  62.01000214
C    20.79999924  15.43000031  63.00000000
C    19.44000053  15.03999901  62.83000183
C    15.29999924  14.56999969  62.02000046
C    14.55999947  14.82999992  63.18999863
C    13.17000008  14.77000046  63.25000000
C    23.12000084  15.82999992  62.25999832
H    23.53259468  15.35338116  63.14921188
H    18.67000008  15.64000034  64.75000000
H    17.39999962  14.11000061  60.21999741
H    19.76000023  14.32000065  59.45999908
H    22.14999962  14.73000050  59.93999863
H    21.00000000  15.81999969  63.99000168
H    12.72999954  14.73999977  64.23999786
H    23.67000198  15.44999981  61.38999939
H    23.09000015  16.93000031  62.23999786
S    12.10999966  14.09999943  59.47999954
C     9.36999989  13.82999992  60.17000198
C    10.67000008  14.13000011  60.51000214
C    11.05000019  14.37999916  61.86999893
C    10.07999992  14.40000057  62.84999847
C     8.71999931  14.14000034  62.55000305
C     7.68000031  14.26000023  63.52000427
C     6.37000036  14.17000008  63.13000107
C     6.07999992  13.52000046  61.90000153
C     7.03000021  13.52000046  60.90000153
C     8.38999939  13.81999969  61.18999863
C    12.46999931  14.60999966  62.04000092
C    13.20000076  14.45000076  60.83000183
C    14.57999992  14.32999992  60.83000183
C     4.65000010  13.17999935  61.53999710
H     4.16789722  13.86770535  60.84520340
H     9.01000023  13.59000015  59.16999817
H    10.36999893  14.65000057  63.87000275
H     7.95000029  14.51000023  64.55000305
H     5.51999998  14.35999966  63.77999878
H     6.76000023  13.25000000  59.87999725
H    15.10000038  13.93000031  59.97000122
H     4.09999990  13.02000046  62.48000336
H     4.72000027  12.22000027  61.02000427
S    12.50000000  12.00000000  56.38999939
C     9.94999981  11.28999901  57.15999985
C    11.30000019  11.16000080  57.38999939
C    11.77999973  10.57999992  58.61000061
C    10.84000015  10.14000034  59.52000046
C     9.43000031  10.24000072  59.38000107
C     8.38999939   9.81999969  60.27000046
C     7.04999971  10.01000023  60.02999878
C     6.65000010  10.64000034  58.82999802
C     7.63000011  11.05000019  57.95999908
C     9.02999973  10.88000107  58.15999985
C    13.22000027  10.81999969  58.68999863
C    13.73000050  11.56000042  57.58999634
C    15.05000019  11.97000027  57.62000275
C     5.18000031  10.65000057  58.47999954
H     4.97467947  10.51548004  57.41799927
H     9.61999989  11.73999977  56.23000336
H    11.21999931   9.72999954  60.45000076
H     8.61999989   9.35999966  61.22000122
H     6.38999987   9.55000019  60.76000214
H     7.42000008  11.64000034  57.06999969
H    15.48999977  12.43000031  56.73999786
H     4.69000006   9.88000011  59.08000183
H     4.75000000  11.61999893  58.77999878
S    16.65999985  10.38000011  60.90999985
C    19.23999977  10.81999969  60.13000107
C    17.90999985  10.93000031  59.78000259
C    17.38000107  11.51999950  58.59000397
C    18.30000114  12.01000023  57.67000198
C    19.67000008  11.94000053  57.98999786
C    20.65000153  12.48999977  57.11000061
C    22.00000000  12.35999966  57.35000229
C    22.43000031  11.92999935  58.62999725
C    21.55999947  11.28000069  59.47000122
C    20.17000008  11.26000023  59.15999985
C    15.93000031  11.56999969  58.63999939
C    15.39999962  10.90999985  59.78000259
C    14.06999969  10.51000023  59.75000000
C    23.75000000  12.44999981  59.15999985
H    24.10639191  11.86551666  60.00821304
H    19.61000061  10.38000011  61.04999924
H    17.95999908  12.43000031  56.72999954
H    20.34000015  12.94000053  56.17000198
H    22.69000053  12.97000027  56.77999878
H    21.90000153  11.06999969  60.48999786
H    13.63000011   9.96999931  60.59000015
H    23.67000198  13.52000046  59.38000107
H    24.53000069  12.35999966  58.39000320
