96

S    16.06999969  15.76000023  64.33000183
C    18.77000046  15.81999969  63.68999863
C    17.46999931  15.75000000  63.23999786
C    17.06999969  15.29999924  61.93999863
C    18.12000084  15.06000042  61.06999969
C    19.48999977  15.17000008  61.43000031
C    20.45999908  14.98999977  60.40000153
C    21.76000214  15.25000000  60.76000214
C    22.13999939  15.64000034  62.06999969
C    21.18999863  15.84000015  63.04000092
C    19.80999947  15.57999992  62.77000046
C    15.65999985  14.98999977  61.81999969
C    14.96999931  15.26999950  63.02999878
C    13.57999992  15.25000000  63.08000183
C    23.57999992  16.01000023  62.36999893
H    23.94351196  15.35425282  63.16117096
H    18.96999931  16.05999947  64.73000336
H    17.87999916  15.11999989  60.00999832
H    20.20000076  14.75999928  59.36999893
H    22.43999863  15.18000031  59.91000366
H    21.42000008  16.14999962  64.05000305
H    13.10999966  15.38000011  64.05000305
H    24.20000076  15.88000107  61.46999741
H    23.55999947  17.02999878  62.77000046
S    12.46999931  14.61999989  59.31999969
C     9.73999977  14.23999977  60.06999969
C    11.03999996  14.56999969  60.37000275
C    11.42000008  14.94999981  61.70000076
C    10.48999977  14.96000099  62.71999741
C     9.13000011  14.63999939  62.45999908
C     8.19000053  14.63000107  63.52000427
C     6.86999989  14.32999992  63.25000000
C     6.50000000  14.01999950  61.90999985
C     7.40999985  13.99000072  60.87999725
C     8.76999950  14.32999992  61.10000229
C    12.84999943  15.13000011  61.88999939
C    13.56999969  14.98000050  60.66999817
C    14.94999981  14.85000038  60.61999893
C     5.07000017  13.61999989  61.65000153
H     4.59870625  14.19126511  60.85022736
H     9.38000011  13.90999985  59.09999847
H    10.75000000  15.14000034  63.75999832
H     8.40999985  15.03999901  64.50000000
H     6.10000038  14.37999916  64.01000214
H     7.23999977  13.66000080  59.86000061
H    15.40999985  14.55999947  59.68000031
H     4.44999981  13.66000080  62.56000137
H     5.10999966  12.56000042  61.36000061
S    12.48000050  12.42000008  56.55000305
C     9.80000019  11.76000023  57.09000015
C    11.13999939  11.63000011  57.38999939
C    11.61000061  11.00999928  58.59000397
C    10.67000008  10.44999981  59.43000031
C     9.27999973  10.59000015  59.20000076
C     8.30999947   9.85000038  59.92000198
C     6.98000002   9.98000050  59.58000183
C     6.54999971  10.80999947  58.50999832
C     7.46000004  11.56999969  57.81000137
C     8.84000015  11.28999901  58.02000046
C    13.03999996  11.23000050  58.80000305
C    13.68999958  11.87999916  57.72999573
C    15.06999969  12.03999996  57.69000244
C     5.09000015  10.88000107  58.11999893
H     4.86249733  10.51741695  57.11756516
H     9.44999981  12.35999966  56.25000000
H    10.98999977   9.81000042  60.25000000
H     8.50000000   9.13999939  60.72000122
H     6.19000006   9.50000000  60.14999771
H     7.23000002  12.15000057  56.91999817
H    15.59000015  12.38000011  56.79000092
H     4.42999983  10.42000008  58.87000275
H     4.90999985  11.96000004  58.15999985
S    16.47999954  10.50000000  61.00000000
C    19.13999939  11.25000000  60.44000244
C    17.81999969  11.19999981  60.06999969
C    17.26000023  11.87000084  58.93000031
C    18.15000153  12.38999939  58.01000214
C    19.54000092  12.20999908  58.20000076
C    20.42000008  12.56000042  57.12999725
C    21.77999878  12.53000069  57.34000397
C    22.26000023  12.15999985  58.62999725
C    21.45000076  11.69000053  59.62999725
C    20.03999901  11.68000031  59.43999863
C    15.81999969  11.68000031  58.81000137
C    15.19999981  10.93999958  59.85000229
C    13.81999969  10.75000000  59.86000061
C    23.74000168  12.36999989  58.87000275
H    24.16730690  11.77177143  59.67475891
H    19.51000023  10.88000107  61.39999771
H    17.75000000  12.71000004  57.04999924
H    20.06000137  12.97000027  56.18999863
H    22.46999931  12.90999985  56.59999847
H    21.70000076  11.50000000  60.66999817
H    13.50000000  10.11000061  60.68000031
H    23.78000069  13.43999958  59.09000015
H    24.18000031  12.28999996  57.85999680
