96

S    15.90999985  15.22999954  64.61999512
C    18.60999870  15.64000034  63.87000275
C    17.30999947  15.34999943  63.53000259
C    16.90000153  15.11999989  62.18000031
C    17.93000031  15.08999920  61.25000000
C    19.29999924  15.27999973  61.56000137
C    20.28000069  15.13000011  60.54999924
C    21.61999893  15.27999973  60.84999847
C    21.97999954  15.57000065  62.18999863
C    21.04999924  15.77999973  63.18999863
C    19.67000008  15.55999947  62.93000031
C    15.48999977  14.82999992  62.01000214
C    14.81999969  14.88999939  63.26000214
C    13.43000031  14.91000080  63.33000183
C    23.38000107  16.07999992  62.43999863
H    23.81217194  15.49904823  63.25475311
H    18.92000008  15.90999985  64.87999725
H    17.64999962  14.94999981  60.20999908
H    19.92000008  15.03000069  59.52999878
H    22.34000015  15.36000061  60.05000305
H    21.35000038  16.18999863  64.15000153
H    12.92000008  14.98999977  64.27999878
H    23.95000076  15.88999939  61.52000046
H    23.36999893  17.17000008  62.55000305
S    12.31999969  13.92000008  59.66999817
C     9.65999985  13.55999947  60.41999817
C    10.93000031  13.96999931  60.76000214
C    11.19999981  14.50000000  62.05999756
C    10.18000031  14.68999958  62.97999954
C     8.86999989  14.29999924  62.64999771
C     7.81000042  14.51000023  63.57999802
C     6.51999998  14.22999954  63.20999908
C     6.25000000  13.64999962  61.95000076
C     7.26999998  13.31999969  61.07999802
C     8.60999966  13.68000031  61.38000107
C    12.64000034  14.65999985  62.19999695
C    13.36999989  14.45000076  61.00000000
C    14.75000000  14.50000000  60.86999893
C     4.82999992  13.38000107  61.50000000
H     4.44599009  13.97023773  60.66798019
H     9.52999973  13.15999985  59.41999817
H    10.42000008  15.11000061  63.95000076
H     8.19000053  14.85000038  64.55000305
H     5.72000027  14.34000015  63.94000244
H     7.17999983  12.92000008  60.06999969
H    15.31999969  14.34000015  59.95999908
H     4.25000000  13.55000019  62.41000366
H     4.74000025  12.32999992  61.19999695
S    12.74000072  11.84000015  56.50000000
C    10.08999920  11.36000061  57.15000153
C    11.40999985  11.17000008  57.45999908
C    11.82000065  10.52999973  58.68000031
C    10.88000107   9.96999931  59.51000214
C     9.50000000  10.13000011  59.20999908
C     8.46000004   9.68999958  60.07999802
C     7.13999987   9.92999935  59.81999969
C     6.76999998  10.65999985  58.64999771
C     7.73999977  11.13000011  57.78999710
C     9.11000061  10.78999996  57.98999786
C    13.26000023  10.72999954  58.79000092
C    13.92000008  11.47999954  57.77999878
C    15.26000023  11.87000084  57.76000214
C     5.32000017  10.93000031  58.33000183
H     4.92053413  10.40926743  57.45973587
H     9.84000015  12.10000038  56.38999939
H    11.26999950   9.47000027  60.38999939
H     8.84000015   9.30000019  61.02000427
H     6.47000027   9.46000004  60.52999878
H     7.40000010  11.72999954  56.95000076
H    15.72000027  12.36999989  56.91999817
H     4.65999985  10.65999985  59.15999985
H     5.23999977  12.02000046  58.25000000
S    16.69000053  10.13000011  60.97000122
C    19.34000015  10.76000023  60.44000244
C    18.01000023  11.00000000  60.19000244
C    17.43999863  11.69000053  59.06999969
C    18.32999992  12.28999996  58.20000076
C    19.70999908  12.27000046  58.48999786
C    20.56999969  12.71999931  57.43999863
C    21.90000153  12.39999962  57.48000336
C    22.46000099  11.77000046  58.62999725
C    21.63000107  11.36999989  59.65000153
C    20.20999908  11.49000072  59.59000015
C    16.01000023  11.47999954  58.88000107
C    15.39999962  10.69000053  59.88999939
C    14.07999992  10.26999950  59.82999802
C    23.90000153  11.32999992  58.75999832
H    24.23529625  11.47267818  59.78728485
H    19.67000008  10.05000019  61.19999695
H    18.04000092  12.64999962  57.21000290
H    20.02000046  13.03999996  56.56000137
H    22.47999954  12.69000053  56.60999680
H    22.06999969  10.82999992  60.47999954
H    13.71000099   9.68000031  60.65999985
H    24.37999916  12.06999969  58.11000061
H    24.11999893  10.29999924  58.44999695
