96

S    15.47000027  15.27999973  64.22999573
C    18.22999954  15.14000034  63.54999924
C    16.90999985  14.96999931  63.22999954
C    16.48999977  14.60000038  61.90999985
C    17.43999863  14.17000008  60.98999786
C    18.81999969  14.37000084  61.25999832
C    19.75000000  14.30999947  60.20000076
C    21.04999924  14.72000027  60.40000153
C    21.47000122  15.21000004  61.66999817
C    20.56999969  15.26999950  62.70000076
C    19.19000053  14.93000031  62.52999878
C    15.06000042  14.68000031  61.68000031
C    14.35999966  14.93999958  62.88999939
C    12.97999954  14.98999977  63.06000137
C    22.93000031  15.50000000  61.91999817
H    23.34259605  15.02338123  62.80921173
H    18.51000023  15.70000076  64.43999481
H    17.20999908  14.07999992  59.93999863
H    19.36000061  14.04999924  59.22000122
H    21.80999947  14.51000023  59.65000153
H    20.88999939  15.69000053  63.64999771
H    12.43999958  15.40999985  63.89999771
H    23.43000031  15.14999962  61.00999832
H    23.06999969  16.59000015  61.95000076
S    11.77999973  13.92000008  59.43000031
C     9.07999992  13.82999992  60.24000168
C    10.38000011  14.19000053  60.47999954
C    10.77000046  14.53999996  61.81999969
C     9.80000019  14.70999908  62.78999710
C     8.43999958  14.42000008  62.48000336
C     7.44999981  14.48999977  63.50000000
C     6.11999989  14.22999954  63.25000000
C     5.69000006  13.89000034  61.93000031
C     6.65000010  13.71999931  60.96000290
C     8.01999950  14.00000000  61.17000198
C    12.20999908  14.61999989  61.95000076
C    12.89999962  14.28999996  60.76000214
C    14.27999973  14.27999973  60.58000183
C     4.26000023  13.53999996  61.63000107
H     4.00388432  14.01665974  60.68379974
H     8.71000004  13.40999985  59.29999924
H    10.08999920  14.92000008  63.81000137
H     7.78999996  14.75000000  64.50000000
H     5.50000000  14.09000015  64.12000275
H     6.37000036  13.23999977  60.01999664
H    14.80999947  13.92000008  59.69999695
H     3.53999996  13.92000008  62.36000061
H     4.09999990  12.46999931  61.44000244
S    16.46000099  15.88999939  57.94000244
C    19.13999939  15.86999989  57.06999969
C    17.81999969  15.57000065  56.84999847
C    17.36999893  15.06000042  55.59000015
C    18.27000046  14.92000008  54.54999924
C    19.63999939  15.14999962  54.80999756
C    20.65999985  14.80000019  53.87000275
C    22.01000023  15.01000023  54.02999878
C    22.40999985  15.64000034  55.22999573
C    21.47999954  16.07999992  56.13999939
C    20.10999870  15.71000004  56.04999924
C    15.90999985  15.00000000  55.54000092
C    15.26000023  15.47000027  56.70999908
C    13.86999989  15.55999947  56.75000000
C    23.87000084  15.98000050  55.45000076
H    24.17657661  15.49518204  56.37685776
H    19.37999916  16.28999901  58.04000092
H    17.98999977  14.59000015  53.54999924
H    20.27000046  14.44000053  52.91999817
H    22.78000069  14.93999958  53.27000046
H    21.78999901  16.60000038  57.04999924
H    13.45999908  15.82999992  57.71999741
H    24.60000038  15.72999954  54.68000031
H    23.90999985  17.06999969  55.59000015
S    12.72999954  14.75000000  53.02000046
C    10.05000019  14.55000019  53.68999863
C    11.32999992  14.86999989  54.09999847
C    11.69999981  15.26999950  55.41999817
C    10.70000076  15.39000034  56.38000107
C     9.38000011  15.01000023  56.03000259
C     8.34999943  15.06999969  57.01000214
C     7.04999971  14.75000000  56.69000244
C     6.71000004  14.47000027  55.34000015
C     7.72000027  14.22999954  54.43000031
C     9.09000015  14.48999977  54.72000122
C    13.14000034  15.36000061  55.58000183
C    13.83999920  15.06999969  54.38000107
C    15.21999931  14.89999962  54.33000183
C     5.26000023  14.18000031  55.01999664
H     4.89620733  14.84338760  54.23534775
H     9.78999996  14.21000004  52.69000244
H    11.00999928  15.55999947  57.41000366
H     8.69000053  15.34999943  58.00000000
H     6.30999994  14.75999928  57.48000336
H     7.30000019  14.01000023  53.44999695
H    15.67000008  14.80000019  53.34999847
H     4.65000010  14.37999916  55.90999985
H     5.09000015  13.14000034  54.72999954
