96

S    15.97000027  15.62000084  64.18000031
C    18.64999962  15.62000084  63.52000427
C    17.38000107  15.25000000  63.16999817
C    17.05999947  14.65000057  61.90000153
C    18.09000015  14.40000057  61.00999832
C    19.43000031  14.77000046  61.29000092
C    20.53999901  14.55999947  60.41999817
C    21.77999878  14.98999977  60.81999969
C    22.06999969  15.62999916  62.05999756
C    21.00000000  15.78999996  62.90999985
C    19.68000031  15.36999893  62.56999969
C    15.62000084  14.68999958  61.69000244
C    14.91000080  15.06999969  62.85999680
C    13.53000069  15.11999989  62.95999908
C    23.48999977  16.02000046  62.36999893
H    24.08832932  15.20086002  62.76888657
H    18.81999969  16.21999931  64.41000366
H    17.87999916  14.21000004  59.95999908
H    20.45000076  14.02999973  59.47000122
H    22.67000008  14.80999947  60.22999573
H    21.11999893  16.34000015  63.83999634
H    12.97000027  15.71000004  63.68000031
H    24.04999924  16.46000099  61.52999878
H    23.46999931  16.61999893  63.29000092
S    12.41000080  13.96999931  59.31999969
C     9.71000004  13.90999985  60.12000275
C    11.02000046  14.23999977  60.38000107
C    11.42000008  14.67000008  61.69000244
C    10.44999981  14.88000011  62.65999603
C     9.07999992  14.73999977  62.36999893
C     8.03999996  14.96000099  63.31999969
C     6.76000023  14.53999996  63.06000137
C     6.38000011  13.93000031  61.83000183
C     7.36999989  13.75000000  60.89000320
C     8.71000004  14.18000031  61.10000229
C    12.86999893  14.63999939  61.81999969
C    13.55000019  14.21000004  60.65999985
C    14.93999958  14.27000046  60.54999924
C     4.99000025  13.36999989  61.63999939
H     4.36287117  13.93299007  60.94873047
H     9.35000038  13.27999973  59.31999969
H    10.77000046  14.98999977  63.68999863
H     8.34000015  15.34999943  64.29999542
H     5.98999977  14.47999954  63.81999969
H     7.09000015  13.15999985  60.01999664
H    15.36999893  14.11999893  59.55999756
H     4.51000023  13.35000038  62.62000275
H     5.00999975  12.30000019  61.37000275
S    16.52000046  15.85999966  57.83000183
C    19.25000000  15.98000050  57.11000061
C    17.94999886  15.64000034  56.81000137
C    17.61999893  15.21999931  55.47999954
C    18.56999969  15.06000042  54.48999786
C    19.92000008  15.22999954  54.86000061
C    21.04000092  15.03999901  53.99000168
C    22.32999992  15.34999943  54.34000015
C    22.65000153  15.88999939  55.61999893
C    21.61000061  16.10000038  56.50000000
C    20.28000069  15.72999954  56.16000366
C    16.18000031  15.01999950  55.31000137
C    15.47000027  15.39000034  56.47999573
C    14.07999992  15.31999969  56.52999878
C    24.05999947  16.36000061  55.90000153
H    24.45269585  15.76024818  56.72108841
H    19.43000031  16.44000053  58.08000183
H    18.27999878  14.60000038  53.54999924
H    20.79999924  14.94999981  52.94000244
H    23.06999969  15.32999992  53.54999924
H    21.80999947  16.43000031  57.51999664
H    13.60000038  15.70000076  57.42000198
H    24.63999939  16.10999870  55.00999832
H    24.03000069  17.43000031  56.16000366
S    13.02000046  14.19999981  52.88999939
C    10.26999950  14.18000031  53.59000397
C    11.57999992  14.45000076  53.88999939
C    11.90000057  14.81999969  55.24000168
C    10.93999958  15.03999901  56.20999908
C     9.59000015  14.75999928  55.91999817
C     8.56999969  14.78999996  56.90999985
C     7.23999977  14.61999989  56.60999680
C     6.89000034  14.13000011  55.31999969
C     7.90000010  13.94000053  54.40999985
C     9.26000023  14.30999947  54.59000015
C    13.34000015  14.85000038  55.43000031
C    14.09000015  14.47000027  54.27999878
C    15.47000027  14.55000019  54.20000076
C     5.51999998  13.63000011  54.93999863
H     5.02333927  14.15504169  54.12405777
H     9.96000004  13.92000008  52.57999802
H    11.13999939  15.51000023  57.16999817
H     8.90999985  15.01000023  57.91999817
H     6.52999973  14.82999992  57.39999771
H     7.64999962  13.36999989  53.52000427
H    16.01000023  14.37999916  53.27000046
H     5.03000021  13.63999939  55.91999817
H     5.69000006  12.58999920  54.64000320
