96

S    15.65000057  15.21000004  64.59000397
C    18.36000061  15.43000031  63.88999939
C    17.06999969  15.11999989  63.53000259
C    16.67000008  14.67000008  62.22999954
C    17.70000076  14.37999916  61.35000229
C    19.04000092  14.72000027  61.59999847
C    20.03000069  14.51000023  60.59000015
C    21.35000038  14.80000019  60.86000061
C    21.61999893  15.32999992  62.15000153
C    20.72000122  15.54999924  63.16999817
C    19.36000061  15.27999973  62.88999939
C    15.24000072  14.46000004  62.04999924
C    14.56999969  14.67000008  63.29000092
C    13.19000053  14.70000076  63.34000015
C    23.08000183  15.62999916  62.37999725
H    23.46464729  14.96042728  63.14929581
H    18.59000015  15.95999908  64.80999756
H    17.50000000  13.89999962  60.38999939
H    19.73999977  14.22000027  59.59000015
H    22.10000038  14.63999939  60.08999634
H    21.00000000  15.95999908  64.13999939
H    12.71000004  14.85999966  64.31000519
H    23.68999863  15.62000084  61.46999741
H    23.00000000  16.60000038  62.88999939
S    12.03999996  13.97999954  59.58000183
C     9.35999966  13.66000080  60.27000046
C    10.64000034  13.99000072  60.66999817
C    11.00000000  14.27000046  62.02999878
C    10.00000000  14.42000008  62.97000122
C     8.65999985  14.14999962  62.60000229
C     7.57000017  14.26000023  63.50999832
C     6.28000021  13.92000008  63.15999985
C     6.07999992  13.30000019  61.90000153
C     7.07000017  13.17000008  60.96000290
C     8.38999939  13.59000015  61.31000137
C    12.43999958  14.40000057  62.19999695
C    13.12000084  14.19999981  60.97000122
C    14.50000000  14.22000027  60.89000320
C     4.65000010  12.89999962  61.60999680
H     4.25147915  13.46931553  60.77025986
H     9.04999924  13.27000046  59.31000137
H    10.25000000  14.75000000  63.97999573
H     7.88999987  14.65000057  64.47000122
H     5.52999973  14.30999947  63.85000229
H     6.84999990  12.97000027  59.92000198
H    14.93999958  14.14000034  59.89999771
H     4.09000015  13.34000015  62.44999695
H     4.51000023  11.82999992  61.42000198
S    12.79999924  11.64999962  56.52999878
C    10.13000011  11.11999989  57.15000153
C    11.46000004  10.92000008  57.43000031
C    11.90000057  10.39999962  58.68999863
C    10.95000076   9.78999996  59.48999786
C     9.57999992   9.89999962  59.15999985
C     8.59000015   9.43000031  60.06999969
C     7.27999973   9.81000042  59.93999863
C     6.78999996  10.34000015  58.72000122
C     7.72000027  10.72000027  57.77000046
C     9.11999989  10.67000008  58.02999878
C    13.30000019  10.67000008  58.96999741
C    13.85000038  11.50000000  57.95000076
C    15.19999981  11.82000065  57.95999908
C     5.35000038  10.72999954  58.53000259
H     4.95284128  10.29028893  57.61511612
H     9.85999966  11.61999893  56.23000336
H    11.23999977   9.30999947  60.41999817
H     8.94999981   9.03999996  61.02000427
H     6.57000017   9.67000008  60.76000214
H     7.44999981  11.43000031  56.98999786
H    15.70000076  12.23000050  57.08000183
H     4.72000027  10.57999992  59.40999985
H     5.35000038  11.82000065  58.40000153
S    16.65999985   9.94999981  61.20999908
C    19.31999969  10.57999992  60.54000092
C    17.97000122  10.62999916  60.24000168
C    17.43999863  11.36000061  59.13000107
C    18.36000061  11.92000008  58.27000046
C    19.76000023  11.79999924  58.43999863
C    20.62999916  12.36999989  57.47000122
C    21.97999954  12.30000019  57.70999908
C    22.49000168  11.73999977  58.92000198
C    21.65999985  11.06999969  59.78000259
C    20.23999977  11.13000011  59.61999893
C    15.98999977  11.28999901  58.99000168
C    15.44999981  10.50000000  60.04000092
C    14.09000015  10.21000004  60.02999878
C    23.92000008  12.07999992  59.26000214
H    24.13355637  11.80237579  60.29219437
H    19.70000076  10.14999962  61.45999908
H    17.97000122  12.38000011  57.36000061
H    20.22000122  12.76999950  56.53999710
H    22.72000122  12.76000023  57.05999756
H    21.96000099  10.67000008  60.75000000
H    13.68000031   9.71000004  60.90000153
H    24.04999924  13.17000008  59.13000107
H    24.59000015  11.54000092  58.59000397
