96

S    15.62999916  15.76000023  64.38000488
C    18.36000061  15.80000019  63.66000366
C    17.05999947  15.44000053  63.37999725
C    16.60000038  14.88000011  62.15000153
C    17.56999969  14.47999954  61.25000000
C    18.92000008  14.85000038  61.44000244
C    19.93999863  14.70000076  60.45000076
C    21.22999954  15.10000038  60.70000076
C    21.61999893  15.69000053  61.93000031
C    20.63999939  16.02000046  62.83000183
C    19.30999947  15.54999924  62.63000107
C    15.15999985  14.89999962  61.93999863
C    14.47000027  15.27999973  63.11999893
C    13.09000015  15.44000053  63.15000153
C    23.02999878  16.13999939  62.25000000
H    23.49947357  15.49980736  62.99689102
H    18.60000038  16.44000053  64.51000214
H    17.32999992  14.04999924  60.27999878
H    19.59000015  14.22000027  59.54000092
H    21.91999817  14.93000031  59.86999893
H    20.96999931  16.51000023  63.75000000
H    12.56999969  15.92000008  63.96999741
H    23.65999985  16.18999863  61.35000229
H    22.92000008  17.18000031  62.57999802
S    12.02000046  14.44000053  59.43000031
C     9.28999996  14.26000023  60.11000061
C    10.57999992  14.59000015  60.45000076
C    10.93999958  14.86999989  61.79999924
C     9.92000008  14.91000080  62.74000168
C     8.59000015  14.55999947  62.43999863
C     7.53000021  14.65999985  63.39000320
C     6.23000050  14.42000008  63.04999924
C     5.89999962  14.01999950  61.72000122
C     6.88000011  14.02999973  60.76000214
C     8.25000000  14.22000027  61.07999802
C    12.36999989  15.06000042  62.01000214
C    13.07000065  14.67000008  60.84000015
C    14.45000076  14.47999954  60.80999756
C     4.48999977  13.60000038  61.35000229
H     4.14039278  14.00668621  60.40106583
H     9.11000061  13.99000072  59.06999969
H    10.22999954  15.07999992  63.76999664
H     7.72000027  14.84000015  64.43999481
H     5.49000025  14.27000046  63.83999634
H     6.71999979  13.96000004  59.68999863
H    15.00000000  14.14999962  59.93000031
H     3.82999992  13.89999962  62.16999817
H     4.61000013  12.51000023  61.38000107
S    12.69999981  12.01000023  56.70999908
C    10.11999989  11.25000000  57.37999725
C    11.44000053  11.36999989  57.77000046
C    11.87000084  10.85000038  59.03999710
C    10.93999958  10.36999893  59.93999863
C     9.55999947  10.36999893  59.59999847
C     8.57999992   9.98000050  60.54999924
C     7.30999994   9.75000000  60.07999802
C     6.78999996  10.19000053  58.82999802
C     7.75000000  10.70000076  57.98999786
C     9.13999939  10.78999996  58.29000092
C    13.30999947  11.05999947  59.12000275
C    13.89999962  11.64000034  57.97000122
C    15.26999950  11.73999977  57.77000046
C     5.38999987   9.86999989  58.34999847
H     5.17642021  10.11917591  57.31057739
H     9.73999977  11.52999973  56.39999771
H    11.23000050   9.98999977  60.90999985
H     8.80000019   9.52999973  61.52000046
H     6.56000042   9.30999947  60.72999954
H     7.42000008  11.09000015  57.02000046
H    15.67000008  11.94000053  56.77999878
H     5.10999966   8.82999992  58.57999802
H     4.78999996  10.43000031  59.08000183
S    16.77999878  10.57000065  61.25000000
C    19.37999916  11.10999966  60.34999847
C    18.02000046  11.16000080  60.12000275
C    17.53000069  11.61000061  58.85000229
C    18.40999985  12.00000000  57.87000275
C    19.80999947  12.01000023  58.11999893
C    20.58000183  12.67000008  57.11999893
C    21.93000031  12.71999931  57.36999893
C    22.44999886  12.28999996  58.61999893
C    21.68999863  11.77000046  59.65000153
C    20.31999969  11.51999950  59.38000107
C    16.06999969  11.52999973  58.89999771
C    15.51000023  10.98999977  60.07999802
C    14.14999962  10.75000000  60.19000244
C    23.88000107  12.63000011  58.94000244
H    24.22766304  12.00562763  59.76303864
H    19.69000053  10.80999947  61.35000229
H    18.04999924  12.48999977  56.97000122
H    20.09000015  13.22999954  56.32999802
H    22.60000038  13.31999969  56.76000214
H    22.11999893  11.59999943  60.63000107
H    13.75000000  10.21000004  61.04999924
H    23.92000008  13.68000031  59.26000214
H    24.43000031  12.53000069  57.98999786
