96

S    15.62000084  15.88999939  64.36999512
C    18.32999992  15.67999935  63.73000336
C    17.02000046  15.36000061  63.43000031
C    16.64999962  14.93000031  62.11000061
C    17.61999893  14.77000046  61.13999939
C    18.97999954  14.98000050  61.49000168
C    20.00000000  14.93999958  60.48999786
C    21.28999901  15.26000023  60.80999756
C    21.63999939  15.77000046  62.09000015
C    20.65999985  16.03000069  63.02000046
C    19.32999992  15.59000015  62.74000168
C    15.21000004  15.00000000  61.90000153
C    14.52000046  15.48999977  63.02999878
C    13.12999916  15.48999977  63.13000107
C    23.09000015  16.14999962  62.29999924
H    23.51707649  15.68733311  63.18974304
H    18.54999924  16.23999977  64.63999939
H    17.39999962  14.29999924  60.19000244
H    19.70999908  14.80999947  59.45000076
H    22.11000061  15.14000034  60.11000061
H    20.86999893  16.60000038  63.92000198
H    12.69000053  15.72999954  64.08999634
H    23.68999863  15.86999989  61.42000198
H    23.12000084  17.25000000  62.37999725
S    12.09000015  14.18000031  59.52999878
C     9.34000015  14.32000065  60.20000076
C    10.65999985  14.61999989  60.48999786
C    10.97000027  15.06999969  61.81000137
C     9.98000050  15.27999973  62.76000214
C     8.63000011  14.94999981  62.48000336
C     7.59999990  15.11000061  63.44999695
C     6.30000019  14.75999928  63.15999985
C     6.00000000  14.17000008  61.90999985
C     6.98999977  13.99000072  60.97000122
C     8.31999969  14.44000053  61.17000198
C    12.41000080  15.14999962  61.97999954
C    13.14000034  14.77000046  60.83000183
C    14.52999973  14.70000076  60.70999908
C     4.63000011  13.71000099  61.45000076
H     4.32508945  14.17800331  60.51399612
H     9.06999969  13.94000053  59.22000122
H    10.21999931  15.69000053  63.73000336
H     7.76999998  15.60999966  64.40000153
H     5.53999996  14.98000050  63.89999771
H     6.86999989  13.43000031  60.04000092
H    15.06999969  14.47000027  59.79999924
H     3.94000006  14.07999992  62.22000122
H     4.57999992  12.61999989  61.36000061
S    12.39999962  11.98999977  56.68000031
C     9.81999969  11.57999992  57.60000229
C    11.17000008  11.51000023  57.85999680
C    11.68000031  10.86999989  59.03999710
C    10.76000023  10.31999969  59.91000366
C     9.36999989  10.31000042  59.65999985
C     8.43000031   9.75000000  60.56999969
C     7.07000017   9.81000042  60.38000107
C     6.61000013  10.38000011  59.15999985
C     7.48000050  11.00000000  58.27999878
C     8.89000034  10.98000050  58.47999954
C    13.12999916  10.88000107  59.06999969
C    13.59000015  11.59000015  57.93000031
C    14.91000080  11.98999977  57.84000015
C     5.13000011  10.27999973  58.90999603
H     4.88904476  10.57765102  57.88948441
H     9.52999973  11.84999943  56.59000015
H    11.06999969   9.81000042  60.81999969
H     8.92000008   9.36999989  61.46999741
H     6.35999966   9.34000015  61.04999924
H     7.18999958  11.47999954  57.35000229
H    15.25000000  12.43000031  56.90999985
H     4.90000010   9.21000004  58.95999908
H     4.56999969  10.82999992  59.68000031
S    16.46000099  10.90000057  61.36000061
C    19.09000015  11.13000011  60.40000153
C    17.75000000  11.40999985  60.25000000
C    17.22999954  11.92000008  59.02000046
C    18.12000084  12.35999966  58.04999924
C    19.51000023  12.35999966  58.29999924
C    20.43999863  13.01000023  57.43999863
C    21.77999878  13.09000015  57.70000076
C    22.25000000  12.46999931  58.88999939
C    21.40000153  11.80999947  59.75000000
C    20.00000000  11.72999954  59.50000000
C    15.78999996  11.76000023  58.90999603
C    15.25000000  11.17000008  60.07999802
C    13.96999931  10.65000057  60.17000198
C    23.69999886  12.61999989  59.26000214
H    23.95518684  12.03873920  60.14606857
H    19.48999977  10.62000084  61.27999878
H    17.78000069  12.84000015  57.14000320
H    20.07999802  13.48000050  56.52000046
H    22.43000031  13.73999977  57.11999893
H    21.75000000  11.32999992  60.65999985
H    13.60999966  10.14000034  61.05999756
H    23.85999870  13.68999958  59.47999954
H    24.41999817  12.48000050  58.43999863
