96

S    16.21000099  15.05000019  64.40000153
C    18.90999985  15.26000023  63.69999695
C    17.64999962  14.80999947  63.40000153
C    17.25000000  14.34000015  62.11000061
C    18.18000031  14.44000053  61.09000397
C    19.51000023  14.85999966  61.35000229
C    20.52000046  14.75999928  60.35999680
C    21.84999847  14.77000046  60.70999908
C    22.19000053  15.13000011  62.04000092
C    21.27000046  15.43000031  63.02000046
C    19.89999962  15.21999931  62.69000244
C    15.80999947  14.25000000  61.88999939
C    15.11999989  14.65000057  63.06000137
C    13.73000050  14.78000069  63.13999939
C    23.65999985  15.22999954  62.37999725
H    24.00883675  14.66046810  63.24141693
H    19.17000008  15.59999943  64.70999908
H    18.02000046  14.14000034  60.06000137
H    20.27000046  14.45000076  59.34999847
H    22.60999870  14.44000053  60.00999832
H    21.40999985  15.67999935  64.06999969
H    13.30000019  15.11000061  64.08000183
H    24.26000214  14.98000050  61.49000168
H    23.94000053  16.27000046  62.58999634
S    12.61999989  13.88000011  59.43000031
C     9.89000034  13.86000061  60.08999634
C    11.18999958  14.11000061  60.45999908
C    11.56000042  14.42999935  61.81000137
C    10.54999924  14.55000019  62.74000168
C     9.21000004  14.22000027  62.43000031
C     8.14999962  14.32999992  63.37999725
C     6.83000040  14.06000042  63.11000061
C     6.53999996  13.76999950  61.76000214
C     7.50000000  13.63999939  60.77999878
C     8.86999989  13.93000031  61.05999756
C    13.00000000  14.56999969  61.97000122
C    13.71000099  14.15999985  60.80999756
C    15.06999969  13.89000034  60.76000214
C     5.09999990  13.36999989  61.56000137
H     4.76554203  13.60483170  60.54951096
H     9.68999958  13.43999958  59.09999847
H    10.81999969  14.70999908  63.77999878
H     8.40999985  14.77000046  64.34999847
H     6.00000000  14.22999954  63.79000092
H     7.23000002  13.38999939  59.75999832
H    15.55999947  13.38000107  59.93999863
H     4.51999998  13.94999981  62.28000259
H     5.12000036  12.30999947  61.84000015
S    16.28999901  15.85000038  57.83000183
C    19.04000092  16.04999924  57.08000183
C    17.75000000  15.64000034  56.84000015
C    17.35000038  15.03000069  55.59999847
C    18.34000015  14.75000000  54.66999817
C    19.67000008  15.15999985  54.88999939
C    20.63999939  14.85999966  53.89999771
C    21.96000099  15.14000034  54.18000031
C    22.36999893  15.81999969  55.35999680
C    21.42999840  16.13999939  56.31000137
C    20.05000114  15.84000015  56.10000229
C    15.92000008  14.82999992  55.43000031
C    15.19000053  15.31000042  56.55000305
C    13.81000042  15.47000027  56.51000214
C    23.81000137  16.26000023  55.50000000
H    24.30213737  15.63948059  56.24890518
H    19.29000092  16.60000038  57.97000122
H    18.07999992  14.27000046  53.73000336
H    20.34000015  14.34000015  52.98999786
H    22.65000153  14.75999928  53.43000031
H    21.84000015  16.54000092  57.22999954
H    13.28999996  15.82999992  57.38999939
H    24.44000053  16.21000099  54.59999847
H    23.78000069  17.28999901  55.86999893
S    12.82999992  14.21000004  52.90000153
C    10.11999989  13.94000053  53.61000061
C    11.39999962  14.32999992  53.93000031
C    11.73999977  14.73999977  55.26000214
C    10.70000076  15.01000023  56.12999725
C     9.35999966  14.75999928  55.77999878
C     8.22000027  15.06000042  56.59000015
C     6.93000031  14.65999985  56.31999969
C     6.71999979  14.00000000  55.07999802
C     7.72000027  13.75000000  54.16999817
C     9.03999996  14.17000008  54.50000000
C    13.17000008  15.01000023  55.34999847
C    13.94000053  14.70999908  54.19000244
C    15.31000042  14.50000000  54.20999908
C     5.28999996  13.67000008  54.69999695
H     4.93305779  14.21969128  53.82905960
H     9.88000011  13.53999996  52.63000107
H    10.85999966  15.39999962  57.12999725
H     8.43999958  15.53999996  57.52999878
H     6.15999985  14.93999958  57.02999878
H     7.59999990  13.27000046  53.20000076
H    15.90999985  14.19999981  53.36000061
H     4.76000023  13.90999985  55.63000107
H     5.18000031  12.58999920  54.58000183
