96

S    15.97000027  15.50000000  64.62999725
C    18.67000008  15.27999973  63.97999573
C    17.35999870  15.11999989  63.57999802
C    16.90000153  14.75999928  62.27000427
C    17.92000008  14.42000008  61.39999771
C    19.29999924  14.55999947  61.70000076
C    20.31999969  14.32000065  60.72999954
C    21.63000107  14.60999966  61.00000000
C    21.98999786  15.31999969  62.16999817
C    21.02999878  15.39999962  63.15999985
C    19.67000008  15.01000023  63.01000214
C    15.47000027  14.88000011  62.06999969
C    14.84000015  15.27999973  63.27999878
C    13.45000076  15.26000023  63.33000183
C    23.39999962  15.77999973  62.45999908
H    23.83430672  15.16769981  63.25029373
H    19.02000046  15.70000076  64.91000366
H    17.65999985  14.25000000  60.35999680
H    19.98999977  13.93000031  59.77000427
H    22.43999863  14.28999996  60.34999847
H    21.31000137  15.72000027  64.15999603
H    12.92000008  15.47999954  64.25000000
H    24.01000023  15.67000008  61.56000137
H    23.38999939  16.84000015  62.76000214
S    12.23999977  13.75000000  59.89999771
C     9.55000019  13.81000042  60.56999969
C    10.82999992  14.19000053  60.87999725
C    11.21000099  14.84000015  62.09999847
C    10.22999954  14.85999966  63.08000183
C     8.92000008  14.37000084  62.84000015
C     7.90999985  14.45000076  63.83999634
C     6.61000013  14.09999943  63.54000092
C     6.25999975  13.53999996  62.28000259
C     7.20000029  13.42000008  61.29000092
C     8.52999973  13.86999989  61.55000305
C    12.65999985  14.93000031  62.22999954
C    13.35999966  14.44000053  61.09000397
C    14.73999977  14.52000046  60.93000031
C     4.86000013  13.15000057  61.86000061
H     4.56715679  13.73568535  60.98861313
H     9.31999969  13.40999985  59.59000015
H    10.54999924  15.10000038  64.08999634
H     8.14999962  14.89999962  64.80000305
H     5.80999947  14.18000031  64.27000427
H     6.90000010  13.04999924  60.31999969
H    15.29000092  14.34999943  60.00999832
H     4.19999981  13.42000008  62.69000244
H     4.90999985  12.07999992  61.62000275
S    12.81000042  11.50000000  56.38000107
C    10.18000031  10.88000107  56.97000122
C    11.50000000  10.75000000  57.31999969
C    11.90999985  10.40999985  58.64999771
C    10.93000031  10.11000061  59.58000183
C     9.55000019  10.24000072  59.25000000
C     8.53999996   9.98999977  60.22999573
C     7.21000004  10.11000061  59.88999939
C     6.84000015  10.34999943  58.54999924
C     7.77999973  10.59000015  57.56999969
C     9.17000008  10.52999973  57.90000153
C    13.30000019  10.72999954  58.90999603
C    13.89999962  11.31999969  57.77000046
C    15.22999954  11.71000004  57.68000031
C     5.38000011  10.53999996  58.18999863
H     5.12328768  10.09788513  57.22732925
H     9.82999992  11.18999958  55.98999786
H    11.19999981   9.63999939  60.52000046
H     8.76000023   9.77999973  61.26999664
H     6.42000008   9.94000053  60.61000061
H     7.53999996  10.93000031  56.56999969
H    15.62999916  12.35000038  56.90000153
H     4.76000023  10.29000092  59.06000137
H     5.25000000  11.63000011  58.15000153
S    16.72999954  10.18000031  61.04000092
C    19.40999985  10.73999977  60.37000275
C    18.06999969  10.81999969  60.06999969
C    17.54999924  11.26999950  58.81000137
C    18.46999931  11.72999954  57.88000107
C    19.86999893  11.69999981  58.09999847
C    20.81999969  12.18000031  57.15000153
C    22.15999985  12.03999996  57.44999695
C    22.63000107  11.57999992  58.70999908
C    21.70000076  11.21000099  59.65999985
C    20.30999947  11.19999981  59.36999893
C    16.10999870  11.21000099  58.64999771
C    15.52999973  10.62999916  59.80999756
C    14.18000031  10.34000015  59.93000031
C    24.09000015  11.39000034  59.05000305
H    24.40308380  11.98058891  59.91098022
H    19.63000107  10.52999973  61.40999603
H    18.13999939  12.02999973  56.88999939
H    20.48999977  12.43999958  56.14999771
H    22.79000092  12.13000107  56.58000183
H    22.17000008  10.80999947  60.56000137
H    13.83999920   9.94999981  60.89000320
H    24.76000023  11.47999954  58.18999863
H    24.01000023  10.36000061  59.41999817
