96

S    15.98999977  15.31000042  64.38000488
C    18.65999985  15.40999985  63.61999893
C    17.36999893  15.06999969  63.29000092
C    17.00000000  14.70999908  61.95000076
C    17.98999977  14.48999977  61.00999832
C    19.34999847  14.70999908  61.32999802
C    20.39999962  14.78000069  60.35999680
C    21.63999939  15.24000072  60.72000122
C    22.00000000  15.51000023  62.06999969
C    20.98999977  15.55999947  63.00000000
C    19.67000008  15.15999985  62.65999603
C    15.54999924  14.57999992  61.86999893
C    14.88000011  15.06000042  63.02000046
C    13.50000000  15.21000004  63.04000092
C    23.44000053  15.85999966  62.37999725
H    23.80960464  15.31269932  63.24715042
H    18.96000099  15.86999989  64.55999756
H    17.73999977  14.15999985  60.00000000
H    20.20999908  14.65000057  59.29999924
H    22.43999863  15.40999985  60.00000000
H    21.17000198  16.02000046  63.96999741
H    13.02999973  15.42000008  63.99000168
H    24.07999992  15.64000034  61.52999878
H    23.54999924  16.93000031  62.58999634
S    12.32999992  14.04000092  59.41999817
C     9.68999958  13.86999989  60.20000076
C    10.95999908  14.26000023  60.52000046
C    11.32999992  14.89999962  61.75000000
C    10.29999924  15.14999962  62.63000107
C     8.97000027  14.75000000  62.34000397
C     7.92999983  14.94999981  63.29000092
C     6.65000010  14.63000107  62.90999985
C     6.32999992  13.96000004  61.70000076
C     7.30000019  13.76999950  60.72999954
C     8.61999989  14.18000031  61.06999969
C    12.77999973  14.85000038  61.88999939
C    13.47000027  14.45000076  60.72000122
C    14.84000015  14.22999954  60.72000122
C     4.96000004  13.35999966  61.49000168
H     4.41359329  13.95607948  60.75909042
H     9.46000004  13.19000053  59.36999893
H    10.48999977  15.57000065  63.61999893
H     8.18000031  15.18000031  64.31999969
H     5.86999989  14.63999939  63.68000031
H     6.94000006  13.21000004  59.86999893
H    15.40999985  14.01999950  59.81999969
H     4.55000019  13.22999954  62.50000000
H     4.99000025  12.31999969  61.14999771
S    16.39000130  15.62999916  57.83000183
C    19.04999924  16.00000000  57.12999725
C    17.80999947  15.52999973  56.77000046
C    17.43999863  15.06999969  55.45999908
C    18.43000031  14.80000019  54.54000092
C    19.71999931  15.27999973  54.86999893
C    20.81999969  15.21000004  53.96999741
C    22.09000015  15.65000057  54.25000000
C    22.36000061  16.21999931  55.52999878
C    21.35000038  16.36999893  56.45000076
C    20.06999969  15.81999969  56.16000366
C    15.98999977  14.96999931  55.37000275
C    15.22999954  15.25000000  56.53999710
C    13.86000061  15.44000053  56.65999985
C    23.77000046  16.54999924  55.97999954
H    24.12575531  15.92387295  56.79823303
H    19.27000046  16.62999916  57.98999786
H    18.23999977  14.37000084  53.55999756
H    20.65000153  14.56999969  53.11000061
H    22.93999863  15.44999981  53.60000229
H    21.38999939  16.80999947  57.43999863
H    13.28999996  15.51000023  57.57999802
H    24.43000031  16.52000046  55.10000229
H    23.78999901  17.59000015  56.32999802
S    12.79999924  14.29999924  52.97000122
C    10.19999981  13.94000053  53.76999664
C    11.44000053  14.42000008  54.10999680
C    11.72000027  15.00000000  55.40000153
C    10.65999985  15.15999985  56.27999878
C     9.35000038  14.72000027  56.00000000
C     8.27000046  14.60000038  56.93000031
C     7.02000046  14.18000031  56.55000305
C     6.80000019  13.71000099  55.22999573
C     7.86000013  13.68000031  54.34000015
C     9.15999985  14.14000034  54.69999695
C    13.15999985  15.11000061  55.48999786
C    13.86999989  14.80000019  54.29999924
C    15.25000000  14.78999996  54.19000244
C     5.38999987  13.45000076  54.75000000
H     5.06244850  14.13358498  53.96672440
H     9.98000050  13.59000015  52.76000214
H    10.86999989  15.44999981  57.29999924
H     8.46000004  14.98000050  57.93000031
H     6.12999964  14.39000034  57.14000320
H     7.73000002  13.26000023  53.34999847
H    15.73999977  14.65000057  53.23999786
H     4.67000008  13.28999996  55.56000137
H     5.35000038  12.42000008  54.36999893
