96

S    15.31000042  15.48999977  64.62999725
C    17.97000122  15.73999977  63.83999634
C    16.69000053  15.34000015  63.53000259
C    16.29999924  14.80999947  62.25999832
C    17.23999977  14.45000076  61.31999969
C    18.55999947  14.85000038  61.60999680
C    19.55000114  14.51000023  60.65000153
C    20.85000038  14.94999981  60.81999969
C    21.19999886  15.77999973  61.90999985
C    20.29000092  15.98000050  62.93000031
C    18.94000053  15.53999996  62.81999969
C    14.85000038  14.70999908  62.15999985
C    14.15999985  15.06999969  63.34000015
C    12.79000092  15.26999950  63.40999985
C    22.63000107  16.21000099  62.08000183
H    23.23016357  15.58840179  62.74446869
H    18.30000114  16.02000046  64.83000183
H    17.00000000  14.00000000  60.35999680
H    19.19000053  14.14000034  59.68999863
H    21.61000061  14.70000076  60.07999802
H    20.58000183  16.45000076  63.87000275
H    12.41000080  15.59000015  64.38000488
H    23.18000031  16.29999924  61.12999725
H    22.56999969  17.15999985  62.62000275
S    11.61999893  13.89999962  59.85000229
C     8.90999985  14.22000027  60.51000214
C    10.22999954  14.27000046  60.89000320
C    10.60999966  14.73000050  62.18999863
C     9.63999939  14.96000099  63.15000153
C     8.27000046  14.80999947  62.84999847
C     7.31999969  14.98000050  63.89999771
C     6.00000000  14.78999996  63.54000092
C     5.65999985  14.40999985  62.22000122
C     6.57000017  14.11999893  61.23000336
C     7.92000008  14.47999954  61.49000168
C    12.05000019  14.86999989  62.29000092
C    12.72999954  14.42999935  61.11999893
C    14.11999893  14.40000057  61.00000000
C     4.19999981  14.14000034  61.95000076
H     3.88843942  14.36658955  60.93035126
H     8.73999977  13.73000050  59.54999924
H     9.84000015  15.39999962  64.13000488
H     7.68000031  15.19999981  64.89999390
H     5.19999981  14.78000069  64.27000427
H     6.38000011  13.81000042  60.20000076
H    14.60999966  14.07999992  60.08999634
H     3.63000011  14.82999992  62.56999969
H     3.98000002  13.12999916  62.30999756
S    15.52000046  15.78999996  58.06000137
C    18.22999954  15.88000107  57.48000336
C    16.97000122  15.46000004  57.09999847
C    16.61999893  15.06999969  55.77000046
C    17.64999962  14.80999947  54.87999725
C    18.96999931  15.03999901  55.31000137
C    20.03000069  14.85999966  54.38000107
C    21.32999802  15.22999954  54.65000153
C    21.57999992  15.90999985  55.86999893
C    20.61000061  16.11999893  56.83000183
C    19.29000092  15.65000057  56.58000183
C    15.18000031  15.01000023  55.56999969
C    14.45000076  15.52000046  56.66999817
C    13.05999947  15.60999966  56.70999908
C    23.00000000  16.31000137  56.18000031
H    23.62714195  15.56170654  56.66461182
H    18.38000107  16.42000008  58.40999985
H    17.38999939  14.32999992  53.93000031
H    19.90999985  14.52000046  53.34999847
H    22.11999893  14.94999981  53.95999908
H    20.73999786  16.55999947  57.81000137
H    12.56000042  15.88999939  57.63000107
H    23.46999931  16.62999916  55.24000168
H    22.81999969  17.13000107  56.88000107
S    11.89000034  14.21000004  53.18000031
C     9.22999954  13.82999992  54.09000015
C    10.47000027  14.40000057  54.22999954
C    10.90999985  14.96000099  55.47000122
C     9.98999977  15.21000004  56.46999741
C     8.64000034  14.86999989  56.20999908
C     7.65999985  15.22999954  57.16999817
C     6.32999992  14.98999977  56.90999985
C     5.88000011  14.32999992  55.72999954
C     6.84000015  13.86000061  54.86999893
C     8.23000050  14.14999962  55.04000092
C    12.35000038  15.13000011  55.59999847
C    13.04999924  14.70000076  54.43999863
C    14.44000053  14.63000107  54.43999863
C     4.39000034  14.22999954  55.47000122
H     4.15503263  14.62161255  54.48028946
H     8.90999985  13.35000038  53.15999985
H    10.25000000  15.52000046  57.48000336
H     7.92999983  15.60999966  58.15000153
H     5.69999981  15.25000000  57.75000000
H     6.57999992  13.26000023  54.00000000
H    14.92000008  14.26000023  53.54999924
H     3.74000025  14.68000031  56.22000122
H     4.21999979  13.15000057  55.45000076
