96

S    15.81999969  15.17000008  64.27999878
C    18.53999901  15.44999981  63.59000397
C    17.25000000  15.13000011  63.22999954
C    16.88999939  14.67000008  61.90999985
C    17.92000008  14.63000107  60.97999954
C    19.27000046  14.94999981  61.25999832
C    20.28000069  14.96000099  60.26000214
C    21.51000023  15.47000027  60.56999969
C    21.73999977  16.03999901  61.84999847
C    20.82999992  15.93999958  62.87000275
C    19.55999947  15.34000015  62.61000061
C    15.44999981  14.60000038  61.70999908
C    14.75999928  14.65000057  62.95000076
C    13.36999989  14.70000076  63.00000000
C    23.15000153  16.39000130  62.25000000
H    23.56064034  15.58995914  62.86595917
H    18.72999954  15.86999989  64.56999969
H    17.64999962  14.42000008  59.94999695
H    20.25000000  14.40999985  59.31999969
H    22.29000092  15.39000034  59.80999756
H    21.14999962  16.10000038  63.89999771
H    12.84000015  14.93999958  63.90999603
H    23.72999954  16.42000008  61.31999969
H    23.25000000  17.39999962  62.68000031
S    12.23999977  14.50000000  59.16999817
C     9.50000000  14.52000046  59.94999695
C    10.84000015  14.57999992  60.25000000
C    11.28999901  14.65999985  61.60999680
C    10.31999969  14.78999996  62.57999802
C     8.93999958  14.60999966  62.29999924
C     7.95000029  14.65999985  63.31999969
C     6.63000011  14.45000076  63.02000046
C     6.24000025  14.04000092  61.70999908
C     7.13999987  14.09999943  60.66999817
C     8.50000000  14.39000034  60.93999863
C    12.72999954  14.50000000  61.77000046
C    13.38999939  14.45000076  60.52000046
C    14.78000069  14.55000019  60.48999786
C     4.81999969  13.61999989  61.42000198
H     4.55718994  14.01776695  60.43979263
H     9.22000027  14.42000008  58.89999771
H    10.62999916  15.00000000  63.60000229
H     8.38000011  14.88000011  64.29999542
H     5.93999958  14.60999966  63.83999634
H     6.80999994  13.89000034  59.65000153
H    15.29000092  14.42000008  59.54000092
H     4.15000010  13.78000069  62.27000427
H     4.84000015  12.53000069  61.31000137
S    12.56000042  11.85999966  56.42000198
C     9.90999985  11.77999973  57.28000259
C    11.23000050  11.46999931  57.52999878
C    11.69999981  11.11999989  58.82999802
C    10.75000000  10.72000027  59.75000000
C     9.35999966  10.90999985  59.55999756
C     8.40999985  10.34999943  60.45000076
C     7.09999990  10.29000092  60.04000092
C     6.67000008  10.77000046  58.76999664
C     7.57999992  11.42000008  57.95999908
C     8.96000004  11.39999962  58.27000046
C    13.15000057  11.23000050  58.93000031
C    13.76000023  11.64000034  57.71999741
C    15.11999989  11.92000008  57.64999771
C     5.23000002  10.57999992  58.36999893
H     4.98822641  10.80755234  57.33179474
H     9.55000019  12.00000000  56.27999878
H    11.06999969   9.98999977  60.48999786
H     8.82999992   9.73999977  61.24000168
H     6.54999971   9.56999969  60.63999939
H     7.36000013  11.61999893  56.90999985
H    15.54999924  12.30999947  56.72999954
H     4.99000025   9.56999969  58.70999908
H     4.61999989  11.18000031  59.06999969
S    16.62999916  10.47000027  61.00999832
C    19.27999878  11.05999947  60.26000214
C    17.93000031  11.13999939  60.00000000
C    17.38000107  11.61000061  58.76999664
C    18.25000000  12.06999969  57.81000137
C    19.65999985  12.05999947  58.00000000
C    20.52999878  12.76000023  57.12999725
C    21.88999939  12.69999981  57.36000061
C    22.36000061  12.39999962  58.66000366
C    21.52000046  11.84000015  59.59000015
C    20.13999939  11.64999962  59.29000092
C    15.92000008  11.51999950  58.72000122
C    15.36000061  10.85000038  59.82999802
C    13.97999954  10.82999992  59.99000168
C    23.77000046  12.72999954  59.09999847
H    23.99765778  12.23911285  60.04620361
H    19.70000076  10.59999943  61.14999771
H    17.82999992  12.31999969  56.84000015
H    20.09000015  13.40999985  56.38000107
H    22.46999931  13.22000027  56.59999847
H    21.80999947  11.56999969  60.61000061
H    13.45000076  10.24000072  60.72999954
H    23.82999802  13.81999969  59.22999954
H    24.46000099  12.46999931  58.29000092
