96

S    16.28000069  15.27999973  64.47999573
C    18.90999985  15.85999966  63.69999695
C    17.64000130  15.46000004  63.34999847
C    17.21999931  15.17000008  62.02000046
C    18.17000008  15.27999973  61.02000427
C    19.52999878  15.44999981  61.36000061
C    20.59999847  15.39000034  60.41999817
C    21.88999939  15.72000027  60.73999786
C    22.21999931  16.26000023  62.02000046
C    21.24000168  16.26000023  62.98999786
C    19.92000008  15.82999992  62.70000076
C    15.77999973  15.05000019  61.91999817
C    15.10000038  15.11000061  63.15999985
C    13.71000099  14.98000050  63.22000122
C    23.67000198  16.52000046  62.36999893
H    23.99684143  15.71710873  63.03078461
H    19.14999962  16.07999992  64.73999786
H    17.89999962  15.17000008  59.97000122
H    20.29999924  15.05000019  59.43000031
H    22.70000076  15.47999954  60.06000137
H    21.47999954  16.61999893  63.97999573
H    13.22999954  14.93999958  64.19000244
H    24.37999916  16.47999954  61.53999710
H    23.74000168  17.50000000  62.83000183
S    12.53000069  14.32000065  59.52999878
C     9.88000011  13.97999954  60.24000168
C    11.13999939  14.37999916  60.63000107
C    11.47999954  14.75999928  61.97000122
C    10.53999996  14.77000046  62.97999954
C     9.19999981  14.52000046  62.60000229
C     8.14000034  14.61999989  63.54999924
C     6.84000015  14.40000057  63.16999817
C     6.48999977  14.27000046  61.79999924
C     7.51999950  14.09999943  60.90000153
C     8.89999962  14.13000011  61.25000000
C    12.93000031  14.86999989  62.05999756
C    13.64999962  14.72000027  60.84999847
C    15.01999950  14.92000008  60.75000000
C     5.05999994  14.26000023  61.32999802
H     4.89604568  14.58790874  60.30350113
H     9.57999992  13.89999962  59.20000076
H    10.69000053  15.01999950  64.01999664
H     8.45000076  15.08999920  64.47999573
H     6.10000038  14.60000038  63.95000076
H     7.28999996  13.78999901  59.87999725
H    15.64000034  14.73000050  59.87999725
H     4.51000023  14.89999962  62.04000092
H     4.63000011  13.25000000  61.31999969
S    12.69999981  12.22000027  56.00000000
C     9.98999977  11.82000065  56.52999878
C    11.28999901  11.75000000  56.95999908
C    11.59999943  11.18999958  58.25000000
C    10.60999966  10.81999969  59.13000107
C     9.26000023  10.92000008  58.72000122
C     8.15999985  10.44999981  59.50000000
C     6.84999990  10.48999977  59.08000183
C     6.54999971  11.03000069  57.80000305
C     7.59000015  11.38000011  56.97000122
C     8.94999981  11.39999962  57.39999771
C    13.02999973  11.28000069  58.50000000
C    13.73000050  11.82000065  57.38999939
C    15.07999992  12.13999939  57.44999695
C     5.09999990  11.38000011  57.56999969
H     4.65340281  10.72073746  56.82567215
H     9.82999992  12.36999989  55.61000061
H    10.84000015  10.40999985  60.11000061
H     8.46000004   9.96000004  60.41999817
H     6.01999998  10.34999943  59.75999832
H     7.30000019  11.67000008  55.96000290
H    15.55999947  12.55000019  56.56999969
H     4.42999983  11.38000011  58.43999863
H     5.07999992  12.43000031  57.25000000
S    16.35000038  10.88999939  60.90999985
C    19.01000023  11.46000004  60.41999817
C    17.70000076  11.59999943  60.00999832
C    17.30999947  12.03999996  58.69999695
C    18.29000092  12.22000027  57.74000168
C    19.64999962  12.03999996  58.09999847
C    20.68000031  12.22000027  57.12999725
C    21.98999786  12.28000069  57.54000092
C    22.34000015  11.90000057  58.87000275
C    21.38000107  11.43000031  59.72999954
C    20.00000000  11.56999969  59.40999985
C    15.85999966  11.95000076  58.60000229
C    15.19000053  11.23000050  59.61999893
C    13.83999920  10.88999939  59.56999969
C    23.68999863  12.32999992  59.40000153
H    23.92380333  11.84822273  60.34938431
H    19.30999947  11.06999969  61.38999939
H    18.02000046  12.55000019  56.73999786
H    20.31999969  12.60000038  56.18000031
H    22.72999954  12.71999931  56.88000107
H    21.54999924  11.21999931  60.77999878
H    13.38999939  10.26999950  60.34999847
H    23.62999916  13.38999939  59.68000031
H    24.47999954  12.28000069  58.63999939
