96

S    16.02000046  14.85000038  64.41000366
C    18.72999954  14.92000008  63.69999695
C    17.43000031  14.70999908  63.34000015
C    17.13000107  14.44000053  61.95999908
C    18.07999992  14.35999966  60.97000122
C    19.42000008  14.65000057  61.31999969
C    20.52000046  14.57999992  60.41999817
C    21.80000114  14.82999992  60.84000015
C    22.04999924  15.34000015  62.15000153
C    21.02000046  15.43000031  63.04999924
C    19.72999954  14.96000099  62.70000076
C    15.69000053  14.22000027  61.86999893
C    14.94999981  14.40999985  63.06000137
C    13.56999969  14.47000027  63.18000031
C    23.45999908  15.77000046  62.50000000
H    23.78030777  15.26462555  63.41109848
H    18.98999977  15.31999969  64.68000031
H    17.84000015  14.14999962  59.93000031
H    20.42000008  14.17000008  59.41999817
H    22.60999870  14.70000076  60.13000107
H    21.18999863  15.73999977  64.08000183
H    13.09000015  14.80999947  64.08999634
H    24.17000008  15.47999954  61.70999908
H    23.59999847  16.84999847  62.63999939
S    12.55000019  13.73000050  59.40000153
C     9.80000019  13.85000038  60.07999802
C    11.13000011  13.97999954  60.43000031
C    11.43000031  14.28999996  61.79000092
C    10.36999893  14.53999996  62.63999939
C     9.00000000  14.29999924  62.37999725
C     7.96000004  14.37999916  63.36000061
C     6.67000008  14.14999962  62.94000244
C     6.37000036  13.90999985  61.56999969
C     7.36999989  13.78999901  60.63000107
C     8.73000050  13.94999981  61.00999832
C    12.86999893  14.19999981  62.00000000
C    13.60999966  13.97999954  60.80999756
C    14.98999977  13.99000072  60.68000031
C     4.97000027  13.61999989  61.11000061
H     4.78488255  13.94039631  60.08473206
H     9.61000061  13.43999958  59.09000015
H    10.69000053  14.70999908  63.67000198
H     8.17000008  14.60999966  64.40000153
H     5.89999962  14.19999981  63.69999695
H     7.23000002  13.69999981  59.55999756
H    15.43000031  14.01999950  59.68000031
H     4.25000000  14.14999962  61.75000000
H     4.81999969  12.53000069  61.18999863
S    12.69000053  11.67000008  56.38999939
C    10.07999992  11.18999958  57.08000183
C    11.39999962  11.02000046  57.43000031
C    11.89000034  10.46000004  58.64999771
C    10.93999958  10.05000019  59.56999969
C     9.55999947  10.25000000  59.31999969
C     8.55000019   9.84000015  60.24000168
C     7.22000027   9.72000027  59.91000366
C     6.80999994  10.14000034  58.61999893
C     7.75000000  10.60999966  57.74000168
C     9.15000057  10.67999935  58.01000214
C    13.34000015  10.54999924  58.74000168
C    13.89000034  11.23000050  57.62000275
C    15.24000072  11.57999992  57.62000275
C     5.42999983   9.85000038  58.08000183
H     5.15247107  10.35524464  57.15490341
H     9.72999954  11.46000004  56.07999802
H    11.18000031   9.76000023  60.58000183
H     8.85999966   9.51000023  61.23000336
H     6.48999977   9.26000023  60.56999969
H     7.55000019  10.95999908  56.72999954
H    15.65999985  12.13000107  56.79000092
H     5.46999979   8.78000069  57.83000183
H     4.67000008  10.01000023  58.86000061
S    16.69999886  10.21999931  61.04000092
C    19.34000015  10.82999992  60.33000183
C    18.00000000  10.93999958  60.06000137
C    17.46999931  11.44999981  58.82999802
C    18.36000061  11.97000027  57.90999985
C    19.76000023  11.97999954  58.16999817
C    20.75000000  12.44999981  57.25999832
C    22.09000015  12.41000080  57.55000305
C    22.56999969  11.98999977  58.81999969
C    21.63000107  11.51999950  59.69999695
C    20.22999954  11.44999981  59.41999817
C    16.03000069  11.28999901  58.74000168
C    15.47000027  10.53999996  59.80999756
C    14.11999893  10.18000031  59.84000397
C    24.04000092  12.01000023  59.19000244
H    24.23890495  11.74005795  60.22714615
H    19.71999931  10.31000042  61.20999908
H    17.94999886  12.22000027  56.93999863
H    20.43999863  12.97999954  56.36000061
H    22.76000023  13.02000046  56.95000076
H    21.98999786  11.03000069  60.59999847
H    13.60999966   9.80000019  60.70999908
H    24.37000084  13.04999924  59.06999969
H    24.73999977  11.51000023  58.52000427
