96

S    15.57000065  15.32999992  64.50000000
C    18.26000023  15.19999981  63.82999802
C    16.95999908  14.98000050  63.44999695
C    16.61999893  14.67000008  62.09000015
C    17.59000015  14.34000015  61.16000366
C    18.93000031  14.46000004  61.59999847
C    20.00000000  14.23999977  60.68000031
C    21.27000046  14.65000057  61.00999832
C    21.56999969  15.32999992  62.22000122
C    20.59999847  15.47000027  63.18999863
C    19.27999878  15.06000042  62.85999680
C    15.18000031  14.73999977  61.88999939
C    14.51000023  15.10000038  63.09000015
C    13.12999916  15.15999985  63.13999939
C    22.95999908  15.90999985  62.36000061
H    23.43551445  15.46287346  63.23296356
H    18.30999947  15.52999973  64.86000061
H    17.32999992  13.90999985  60.19000244
H    19.72999954  13.83999920  59.71000290
H    22.04000092  14.67000008  60.25000000
H    20.88999939  15.90999985  64.13999939
H    12.56999969  15.27999973  64.06999969
H    23.52999878  15.76000023  61.43000031
H    22.98000145  17.00000000  62.50000000
S    12.01000023  14.11000061  59.40999985
C     9.36999989  13.78000069  60.13000107
C    10.60999966  14.22999954  60.50000000
C    10.95999908  14.67000008  61.81999969
C     9.90999985  14.82999992  62.71999741
C     8.60000038  14.47000027  62.34000397
C     7.50000000  14.78999996  63.18999863
C     6.19999981  14.53999996  62.80000305
C     5.93999958  13.80000019  61.60999680
C     6.97000027  13.53999996  60.73999786
C     8.31999969  13.82999992  61.07999802
C    12.38999939  14.81999969  62.00000000
C    13.05999947  14.51000023  60.77999878
C    14.44000053  14.47999954  60.72999954
C     4.51000023  13.45000076  61.25000000
H     4.26074934  13.95562267  60.31708908
H     9.22000027  13.31999969  59.15000153
H    10.03999901  15.18000031  63.74000168
H     7.71000004  15.26999950  64.13999939
H     5.35000038  14.61999989  63.46000290
H     6.81999969  13.17000008  59.72999954
H    14.98000050  13.96999931  59.93999863
H     3.77999997  13.85000038  61.97000122
H     4.28999996  12.38000011  61.18000031
S    12.64000034  11.69999981  56.45000076
C     9.98999977  11.23999977  57.16999817
C    11.32999992  11.10999966  57.49000168
C    11.82000065  10.57000065  58.72000122
C    10.88000107  10.13000011  59.64000320
C     9.52000046  10.42000008  59.41999817
C     8.55000019  10.01000023  60.38000107
C     7.18999958  10.03000069  60.14999771
C     6.72999954  10.36999893  58.85000229
C     7.63000011  10.80999947  57.90999985
C     9.02999973  10.90000057  58.15999985
C    13.26000023  10.70000076  58.86000061
C    13.81000042  11.38000011  57.75000000
C    15.17000008  11.64999962  57.67000198
C     5.26999998  10.18000031  58.52000427
H     5.05630732  10.56464767  57.52276611
H     9.63999939  11.69000053  56.25000000
H    11.03000069   9.59000015  60.56999969
H     8.84000015   9.39999962  61.23000336
H     6.53999996   9.81000042  60.98999786
H     7.28999996  10.93999958  56.88999939
H    15.59999943  11.92999935  56.72000122
H     4.94999981   9.13000011  58.63999939
H     4.69999981  10.69000053  59.31000137
S    16.64999962  10.15999985  61.04999924
C    19.29999924  10.57000065  60.25000000
C    17.95999908  10.76000023  60.00999832
C    17.46999931  11.36000061  58.80000305
C    18.36000061  11.78999996  57.84000015
C    19.73999977  11.49000072  58.01000214
C    20.66999817  12.10000038  57.11999893
C    21.97999954  12.25999928  57.50999832
C    22.42000198  11.69000053  58.74000168
C    21.61000061  10.97000027  59.59000015
C    20.22999954  10.95999908  59.25000000
C    16.02000046  11.31999969  58.74000168
C    15.44000053  10.67000008  59.85000229
C    14.09999943  10.31999969  59.92000198
C    23.78999901  11.97000027  59.31999969
H    24.17486382  11.29292870  60.08259583
H    19.61000061  10.11000061  61.18000031
H    18.02000046  12.25999928  56.91999817
H    20.25000000  12.63000011  56.27999878
H    22.62000084  12.92000008  56.93000031
H    22.00000000  10.62999916  60.54999924
H    13.69999981   9.81999969  60.79000092
H    23.64000130  12.98999977  59.69999695
H    24.47999954  11.97999954  58.47000122
