96

S    15.92000008  15.59000015  64.48999786
C    18.63000107  15.52999973  63.80000305
C    17.30999947  15.40999985  63.40999985
C    16.95999908  14.96000099  62.09999847
C    17.90999985  14.75999928  61.11000061
C    19.27000046  14.92000008  61.44000244
C    20.31999969  14.65000057  60.51000214
C    21.63000107  14.93000031  60.80999756
C    21.97000122  15.26999950  62.15000153
C    20.97999954  15.46000004  63.08000183
C    19.59000015  15.31000042  62.78999710
C    15.52000046  14.78000069  61.97999954
C    14.84000015  15.13000011  63.16999817
C    13.45000076  15.18000031  63.13999939
C    23.44000053  15.46000004  62.45999908
H    23.73123360  14.85622215  63.31949615
H    18.88000107  15.86999989  64.80000305
H    17.63000107  14.37000084  60.13000107
H    20.06000137  14.19000053  59.55999756
H    22.42000198  14.73000050  60.10000229
H    21.35999870  15.73999977  64.05999756
H    12.84999943  15.24000072  64.04000092
H    24.11999893  15.31999969  61.60999680
H    23.44000053  16.53000069  62.70000076
S    12.30000019  14.09999943  59.50000000
C     9.61000061  13.81999969  60.28999710
C    10.90000057  14.19999981  60.59000015
C    11.23000050  14.68999958  61.88999939
C    10.24000072  14.81999969  62.85999680
C     8.89999962  14.48999977  62.56999969
C     7.86999989  14.73000050  63.53000259
C     6.57000017  14.47000027  63.15000153
C     6.24000025  13.89999962  61.90000153
C     7.23999977  13.67000008  60.97999954
C     8.59000015  14.04000092  61.24000168
C    12.65999985  14.88999939  62.02000046
C    13.36999989  14.59000015  60.83000183
C    14.75999928  14.52999973  60.81999969
C     4.82999992  13.50000000  61.52999878
H     4.41852522  14.13140106  60.74251938
H     9.43000031  13.35999966  59.31999969
H    10.62999916  15.29000092  63.75999832
H     8.05000019  15.11999989  64.52999878
H     5.69999981  14.78999996  63.72000122
H     6.96000004  13.35999966  59.97000122
H    15.29999924  14.39000034  59.88999939
H     4.26999998  13.55999947  62.47000122
H     4.76000023  12.43999958  61.26999664
S    12.48000050  11.69000053  56.25000000
C     9.88000011  11.10999966  57.06999969
C    11.23000050  10.98000050  57.29000092
C    11.73999977  10.47000027  58.53000259
C    10.85999966  10.08999920  59.52000046
C     9.47000027  10.31000042  59.40000153
C     8.51000023   9.76000023  60.28999710
C     7.16000032   9.96999931  60.08999634
C     6.70000029  10.47999954  58.83999634
C     7.59999990  10.98000050  57.93000031
C     9.00000000  10.88000107  58.15999985
C    13.20000076  10.55999947  58.50000000
C    13.76999950  11.21999931  57.38999939
C    15.03999901  11.77999973  57.37999725
C     5.23000002  10.31999969  58.53000259
H     4.89477015  10.81214619  57.61703491
H     9.44000053  11.50000000  56.14999771
H    11.23999977   9.51000023  60.35999680
H     8.85000038   9.30999947  61.22000122
H     6.43000031   9.63999939  60.81999969
H     7.25000000  11.44000053  57.01000214
H    15.42000008  12.23999977  56.46999741
H     5.03999996   9.25000000  58.41999817
H     4.53000021  10.51000023  59.34999847
S    16.39000130  10.65999985  60.97000122
C    19.04000092  11.10999966  60.41999817
C    17.75000000  11.18999958  59.95999908
C    17.32999992  11.57999992  58.64999771
C    18.31999969  12.05999947  57.81999969
C    19.69000053  11.87999916  58.15000153
C    20.72000122  12.18000031  57.22000122
C    22.03000069  11.89000034  57.52999878
C    22.36999893  11.43000031  58.81999969
C    21.40000153  11.09000015  59.73999786
C    20.03999901  11.36999989  59.45000076
C    15.90000057  11.46999931  58.43999863
C    15.31000042  10.85000038  59.56999969
C    14.04000092  10.29000092  59.59000015
C    23.81000137  11.05000019  59.06999969
H    24.17980385  11.46247196  60.00872803
H    19.37000084  10.62000084  61.33999634
H    18.05999947  12.48999977  56.84999847
H    20.52999878  12.48000050  56.18999863
H    22.84000015  12.01000023  56.81999969
H    21.60000038  10.65999985  60.72000122
H    13.68999958   9.89000034  60.52999878
H    24.44999886  11.42000008  58.26000214
H    23.69999886   9.96000004  59.02000046
