96

S    15.82999992  15.10000038  64.59999847
C    18.54999924  15.44000053  63.85000229
C    17.27000046  15.01000023  63.56999969
C    16.94000053  14.47000027  62.29000092
C    17.94999886  14.44000053  61.33999634
C    19.29000092  14.81999969  61.56999969
C    20.30999947  14.78999996  60.58000183
C    21.50000000  15.44999981  60.76000214
C    21.80000114  15.85999966  62.09000015
C    20.88999939  15.81999969  63.13000107
C    19.57999992  15.31000042  62.88999939
C    15.51000023  14.26000023  62.09999847
C    14.78000069  14.57999992  63.27000046
C    13.38999939  14.61999989  63.34000015
C    23.16999817  16.36000061  62.45999908
H    23.72169304  15.63148117  63.05413055
H    18.81000137  15.77000046  64.86000061
H    17.56999969  14.04999924  60.40000153
H    20.09000015  14.25000000  59.65999985
H    22.14999962  15.59000015  59.91000366
H    21.15999985  16.34000015  64.04000092
H    12.84999943  14.93999958  64.22999573
H    23.75999832  16.65999985  61.59000015
H    23.02000046  17.27000046  63.04999924
S    12.28999996  13.93000031  59.59000015
C     9.57999992  13.78999901  60.20999908
C    10.85999966  14.06999969  60.63000107
C    11.28999901  14.27999973  61.97999954
C    10.21000004  14.51000023  62.81999969
C     8.85000038  14.42999935  62.44999695
C     7.76999998  14.68999958  63.34999847
C     6.44000006  14.44000053  63.08000183
C     6.10000038  14.19999981  61.72000122
C     7.11999989  13.96000004  60.83000183
C     8.51000023  13.97999954  61.12999725
C    12.72999954  14.23999977  62.15999985
C    13.42000008  13.99000072  60.94999695
C    14.80999947  13.96000004  60.91999817
C     4.67000008  14.04999924  61.27999878
H     4.41348457  14.31364059  60.25394058
H     9.28999996  13.40000057  59.23999786
H    10.51000023  14.80999947  63.81999969
H     8.07999992  14.96000099  64.34999847
H     5.69999981  14.47999954  63.87000275
H     6.88000011  13.53000069  59.86000061
H    15.34000015  13.81999969  59.98000336
H     4.07999992  14.73000050  61.90999985
H     4.38000011  13.02999973  61.59000015
S    16.18999863  15.54999924  57.91999817
C    18.88000107  15.70000076  57.14000320
C    17.57999992  15.39999962  56.83000183
C    17.11000061  15.01000023  55.52999878
C    18.09999847  14.86999989  54.56999969
C    19.45999908  15.21000004  54.77000427
C    20.50000000  15.07999992  53.80000305
C    21.77000046  15.48999977  54.13000107
C    22.20999908  15.93999958  55.40000153
C    21.18000031  16.07999992  56.29000092
C    19.82999992  15.67000008  56.09000397
C    15.69000053  14.77000046  55.38000107
C    15.06999969  15.11000061  56.60999680
C    13.68999958  15.19000053  56.65000153
C    23.59999847  16.48999977  55.63999939
H    24.21809006  15.91453648  56.32913208
H    19.22000122  15.98999977  58.13000107
H    17.72999954  14.50000000  53.61999893
H    20.26000023  14.75999928  52.78999710
H    22.26000023  15.71000004  53.18000031
H    21.40999985  16.56999969  57.23999786
H    13.17999935  15.52000046  57.55000305
H    23.97999954  16.53000069  54.61000061
H    23.62999916  17.52000046  56.02000427
S    12.43999958  14.28999996  52.97999954
C     9.73999977  14.34999943  53.76999664
C    11.06999969  14.48999977  54.09000015
C    11.44999981  14.88999939  55.40999985
C    10.48999977  15.15999985  56.37000275
C     9.13999939  14.94999981  56.02000427
C     8.10000038  15.13000011  56.97999954
C     6.76999998  14.96000099  56.66999817
C     6.32999992  14.70000076  55.34000015
C     7.31999969  14.34999943  54.45000076
C     8.71000004  14.47000027  54.73999786
C    12.89999962  14.88000011  55.52999878
C    13.56999969  14.59000015  54.31999969
C    14.94999981  14.46000004  54.22999954
C     4.88000011  14.61999989  54.92000198
H     4.71643686  15.03246403  53.92440033
H     9.46000004  14.11000061  52.75000000
H    10.80999947  15.44999981  57.36999893
H     8.40999985  15.52000046  57.95000076
H     5.98999977  15.06000042  57.42000198
H     7.04999971  14.15999985  53.41999817
H    15.51000023  14.28999996  53.30999756
H     4.28000021  15.15999985  55.65999985
H     4.55000019  13.56999969  54.87999725
