96

S    16.45000076  15.24000072  64.08000183
C    19.07999992  15.31000042  63.40999985
C    17.81999969  14.93999958  63.00000000
C    17.43000031  14.85000038  61.62000275
C    18.38000107  14.93000031  60.61999893
C    19.72999954  15.08999920  61.02000427
C    20.76999855  15.19999981  60.06000137
C    22.01000023  15.62999916  60.45999908
C    22.34000015  15.93000031  61.81000137
C    21.38000107  15.73999977  62.78999710
C    20.06999969  15.34000015  62.39999771
C    15.98000050  14.88999939  61.52000046
C    15.29999924  15.15999985  62.72999573
C    13.90999985  15.19000053  62.81000137
C    23.68999863  16.47999954  62.22000122
H    24.31064034  15.79515648  62.79783630
H    19.22000122  15.62999916  64.43999481
H    18.00000000  14.93000031  59.59999847
H    20.48000145  15.11000061  59.02000046
H    22.76000023  15.88999939  59.72000122
H    21.65999985  16.01000023  63.80000305
H    13.43999958  15.22999954  63.77999878
H    24.23999977  16.69000053  61.29000092
H    23.61999893  17.42000008  62.77000046
S    12.71000004  14.27999973  59.13999939
C    10.03000069  14.14000034  59.84000397
C    11.32999992  14.37999916  60.24000168
C    11.67000008  14.78000069  61.56999969
C    10.65000057  15.06000042  62.47000122
C     9.31999969  14.73999977  62.12999725
C     8.25000000  14.98999977  63.04000092
C     6.94999981  14.77000046  62.63000107
C     6.63999987  14.19999981  61.36000061
C     7.65999985  13.92000008  60.48999786
C     9.01000023  14.22999954  60.81999969
C    13.10999966  14.93999958  61.69000244
C    13.81000042  14.65999985  60.47999954
C    15.19000053  14.65999985  60.38000107
C     5.26000023  13.68000031  61.04000092
H     4.87742186  14.21135902  60.16857147
H     9.80000019  13.94000053  58.79000092
H    10.88999939  15.38000011  63.47999954
H     8.55000019  15.42000008  63.99000168
H     6.21000004  15.01999950  63.37999725
H     7.53999996  13.31999969  59.59000015
H    15.73999977  14.21000004  59.54999924
H     4.63000011  13.90999985  61.90999985
H     5.18000031  12.60000038  60.86999893
S    16.59000015  16.01000023  57.45999908
C    19.32999992  16.10999870  56.75000000
C    18.02999878  15.80000019  56.44000244
C    17.63000107  15.34000015  55.13999939
C    18.61999893  15.11000061  54.20000076
C    19.96999931  15.44000053  54.50000000
C    21.07000160  15.47000027  53.60000229
C    22.37999916  15.59999943  53.99000168
C    22.72999954  15.86999989  55.34000015
C    21.70000076  16.18999863  56.18999863
C    20.36000061  15.93999958  55.79000092
C    16.18999863  15.18000031  55.01999664
C    15.47000027  15.44999981  56.19999695
C    14.09999943  15.71000004  56.22000122
C    24.14999962  16.23999977  55.68999863
H    24.42086411  15.64124870  56.55961227
H    19.48999977  16.48999977  57.76000214
H    18.39999962  14.98999977  53.15000153
H    20.81999969  15.26999950  52.55000305
H    23.22999954  15.57000065  53.31999969
H    21.78999901  16.72000122  57.14000320
H    13.69999981  16.10999870  57.15000153
H    24.89999962  16.22999954  54.88999939
H    24.20999908  17.30999947  55.93000031
S    12.90999985  14.22999954  52.75000000
C    10.19000053  14.25000000  53.47000122
C    11.50000000  14.52000046  53.79000092
C    11.85999966  15.15999985  55.01999664
C    10.88999939  15.44999981  55.96000290
C     9.53999996  15.10000038  55.70000076
C     8.51000023  15.31000042  56.66999817
C     7.20000029  15.03000069  56.36000061
C     6.89000034  14.40000057  55.12000275
C     7.82000017  14.26000023  54.12000275
C     9.18000031  14.55000019  54.41999817
C    13.30999947  15.26000023  55.14999771
C    14.01999950  14.73999977  54.03999710
C    15.39999962  14.75999928  53.94000244
C     5.44000053  14.09999943  54.84000397
H     5.09874725  14.67586517  53.97975540
H     9.86999989  13.96000004  52.47000122
H    11.21999931  15.84000015  56.91999817
H     8.73000050  15.75000000  57.63999939
H     6.43000031  15.34000015  57.05999756
H     7.55000019  13.82999992  53.15999985
H    15.86999989  14.35999966  53.04000092
H     4.82999992  14.23999977  55.73999786
H     5.32999992  13.02999973  54.62999725
