96

S    15.52999973  15.11999989  64.19999695
C    18.22999954  15.22999954  63.57999802
C    16.95000076  14.98000050  63.13999939
C    16.55999947  14.59000015  61.81999969
C    17.59000015  14.48999977  60.90000153
C    18.86000061  15.03999901  61.18000031
C    19.88999939  15.05000019  60.20000076
C    21.19999886  15.19000053  60.61000061
C    21.51000023  15.59999943  61.93000031
C    20.55000114  15.57999992  62.91999817
C    19.20999908  15.26999950  62.55000305
C    15.13000011  14.40999985  61.59000015
C    14.48999977  14.65000057  62.84000015
C    13.10999966  14.78000069  62.90999985
C    22.92000008  16.00000000  62.30999756
H    23.44632339  15.08248806  62.57316208
H    18.53999901  15.50000000  64.58000183
H    17.36999893  14.14999962  59.88999939
H    19.57999992  14.55000019  59.29000092
H    22.01000023  14.93000031  59.93999863
H    20.75000000  15.84000015  63.95000076
H    12.58999920  15.01999950  63.83999634
H    23.45000076  16.42000008  61.45000076
H    22.98999977  16.64999962  63.18999863
S    11.95000076  13.97999954  59.18000031
C     9.26000023  13.67000008  60.00999832
C    10.53999996  14.09000015  60.26000214
C    10.95999908  14.52999973  61.56000137
C    10.00000000  14.67000008  62.54000092
C     8.64000034  14.32999992  62.36999893
C     7.60999966  14.57999992  63.31999969
C     6.28999996  14.50000000  62.93000031
C     5.98000002  13.85000038  61.70999908
C     6.94999981  13.57999992  60.77000046
C     8.31999969  13.82999992  61.05999756
C    12.41000080  14.52999973  61.72999954
C    13.07999992  14.17000008  60.52999878
C    14.46000004  14.07999992  60.40999985
C     4.53999996  13.48999977  61.40999603
H     4.19104195  14.20215988  60.66222763
H     8.89000034  13.27999973  59.06000137
H    10.38000011  15.01000023  63.50000000
H     7.71000004  15.10000038  64.27000427
H     5.56999969  14.94999981  63.60000229
H     6.78999996  13.27000046  59.73999786
H    14.88000011  13.76999950  59.45999908
H     4.00999975  13.59000015  62.36000061
H     4.48999977  12.44999981  61.05999756
S    15.85000038  15.75000000  57.88000107
C    18.57999992  15.97000027  57.23999786
C    17.30999947  15.57000065  56.88999939
C    17.02999878  15.07999992  55.58000183
C    18.09999847  14.96000099  54.71000290
C    19.42000008  15.29000092  55.06999969
C    20.56999969  15.08999920  54.25000000
C    21.83000183  15.50000000  54.64000320
C    22.10000038  16.09000015  55.90000153
C    21.01000023  16.27000046  56.72000122
C    19.69000053  15.88000107  56.36000061
C    15.59999943  14.86999989  55.35999680
C    14.85000038  15.24000072  56.50000000
C    13.47000027  15.44000053  56.45000076
C    23.45999908  16.63999939  56.25999832
H    24.00786018  15.90003395  56.84343719
H    18.59000015  16.46999931  58.20999908
H    17.92000008  14.82999992  53.63999939
H    20.40999985  14.63999939  53.27999878
H    22.63999939  15.36000061  53.94000244
H    21.24000168  16.54999924  57.74000168
H    12.94000053  16.03999901  57.18000031
H    23.90999985  16.86000061  55.28999710
H    23.22999954  17.56000137  56.81000137
S    12.57999992  14.19999981  52.77000046
C     9.80000019  14.06999969  53.46000290
C    11.10999966  14.39000034  53.73000336
C    11.39999962  14.93000031  55.02999878
C    10.38000011  15.21999931  55.91999817
C     9.06000042  14.77000046  55.70999908
C     8.01999950  14.96999931  56.66999817
C     6.71999979  14.68999958  56.32999802
C     6.43000031  14.21000004  55.02999878
C     7.40000010  13.99000072  54.06999969
C     8.76999950  14.19999981  54.41999817
C    12.82999992  15.01999950  55.27000046
C    13.60000038  14.60000038  54.15999985
C    14.98999977  14.53999996  54.15000153
C     4.98000002  13.96999931  54.71000290
H     4.55435467  14.69359684  54.01478195
H     9.56999969  13.71000099  52.47000122
H    10.53999996  15.78999996  56.83000183
H     8.30999947  15.57000065  57.54000092
H     5.95000029  15.05000019  57.01000214
H     7.05999947  13.78000069  53.06999969
H    15.57999992  14.34000015  53.25000000
H     4.33999968  13.80000019  55.58000183
H     5.01999950  13.04999924  54.10999680
