96

S    15.70000076  15.03999901  64.77000427
C    18.37000084  15.36999893  63.95999908
C    17.06999969  15.03000069  63.64999771
C    16.69000053  14.65000057  62.32999802
C    17.69000053  14.67000008  61.38000107
C    19.04999924  14.91000080  61.68000031
C    20.10000038  14.60999966  60.77000046
C    21.38000107  15.08999920  60.94999695
C    21.77000046  15.57000065  62.22999954
C    20.78000069  15.65999985  63.18999863
C    19.40000153  15.42000008  62.97999954
C    15.25000000  14.51000023  62.15999985
C    14.60999966  14.82999992  63.37999725
C    13.23999977  15.03000069  63.41999817
C    23.15000153  16.04999924  62.60000229
H    23.49071121  15.40406704  63.40919113
H    18.53999901  15.64000034  65.00000000
H    17.52000046  14.44000053  60.33000183
H    19.76000023  14.19000053  59.82999802
H    22.06000137  15.03000069  60.10000229
H    21.11000061  15.90000057  64.19999695
H    12.75000000  15.14000034  64.38000488
H    23.74000168  16.01000023  61.66999817
H    23.15000153  17.12000084  62.84000015
S    11.92000008  14.14000034  59.79999924
C     9.28999996  13.96000004  60.66999817
C    10.57000065  14.37000084  60.93000031
C    10.97000027  14.96999931  62.15999985
C    10.01000023  15.11000061  63.15000153
C     8.65999985  14.73999977  62.95999908
C     7.64999962  14.73999977  63.95999908
C     6.34000015  14.42999935  63.67000198
C     5.96000004  14.19000053  62.31999969
C     6.94000006  13.99000072  61.37000275
C     8.31999969  14.14999962  61.69000244
C    12.42000008  14.93000031  62.29000092
C    13.05999947  14.55999947  61.09000397
C    14.42000008  14.23999977  61.05999756
C     4.55999994  13.82999992  61.90000153
H     4.13324118  14.49147511  61.14606094
H     9.09000015  13.31999969  59.80999756
H    10.27999973  15.31999969  64.18000031
H     8.03999996  14.93999958  64.95999908
H     5.73000002  14.59000015  64.55000305
H     6.67999983  13.68999958  60.35999680
H    14.85999966  13.71000099  60.21999741
H     3.98000002  13.73000050  62.81999969
H     4.65999985  12.84000015  61.43000031
S    12.36999989  12.09000015  56.24000168
C     9.72000027  11.63000011  56.97000122
C    11.05999947  11.44000053  57.22999954
C    11.56000042  10.84000015  58.43000031
C    10.65000057  10.32999992  59.33000183
C     9.26000023  10.47999954  59.10999680
C     8.28999996   9.98000050  60.02999878
C     6.94999981  10.26000023  59.87999725
C     6.51000023  10.95999908  58.72000122
C     7.39000034  11.36999989  57.76000214
C     8.78999996  11.14999962  57.91999817
C    13.01000023  11.02000046  58.54000092
C    13.60999966  11.64999962  57.43000031
C    14.96999931  11.96000004  57.43000031
C     5.03000021  11.21000099  58.50999832
H     4.66611385  10.75335884  57.58958435
H     9.51000023  12.20000076  56.06999969
H    10.88999939   9.85000038  60.27000046
H     8.59000015   9.52999973  60.97000122
H     6.25000000   9.92999935  60.63999939
H     7.13999987  11.90999985  56.84999847
H    15.38000011  12.43999958  56.55000305
H     4.46000004  10.80999947  59.36000061
H     4.92000008  12.30000019  58.47000122
S    16.29999924  10.29000092  60.81999969
C    18.96000099  11.07999992  60.34999847
C    17.64000130  11.06999969  59.97000122
C    17.13999939  11.65999985  58.75999832
C    18.04000092  12.15999985  57.84000015
C    19.42000008  12.09000015  58.13999939
C    20.38000107  12.51999950  57.18000031
C    21.73000145  12.48000050  57.41000366
C    22.18000031  11.90000057  58.62999725
C    21.28999901  11.44000053  59.58000183
C    19.88999939  11.51000023  59.36999893
C    15.70000076  11.51999950  58.54000092
C    15.13000011  10.72999954  59.56999969
C    13.75000000  10.54999924  59.62999725
C    23.64999962  11.96000004  58.97999573
H    23.87153053  11.81707668  60.03763199
H    19.31999969  10.72999954  61.31000137
H    17.79999924  12.43999958  56.81000137
H    20.07999802  12.90999985  56.20999908
H    22.50000000  13.02999973  56.88999939
H    21.70000076  10.95000076  60.45000076
H    13.30000019   9.96999931  60.43000031
H    24.05999947  12.84000015  58.46000290
H    24.18000031  11.18999958  58.40000153
