96

S    16.14999962  14.80999947  64.25000000
C    18.84000015  14.48999977  63.61000061
C    17.53000069  14.47000027  63.18999863
C    17.21999931  14.22999954  61.81000137
C    18.25000000  14.01999950  60.90999985
C    19.57999992  14.29999924  61.30000305
C    20.69000053  14.53999996  60.44000244
C    21.88999939  15.11000061  60.79000092
C    22.17000008  15.42000008  62.14000320
C    21.15999985  15.11000061  63.02000046
C    19.89999962  14.56999969  62.67000198
C    15.77999973  14.28999996  61.60999680
C    15.11999989  14.61999989  62.81999969
C    13.73999977  14.80999947  62.83000183
C    23.43000031  16.05999947  62.69000244
H    24.01343536  15.32003212  63.23786163
H    18.96999931  14.80999947  64.63999939
H    18.04000092  13.71000099  59.88999939
H    20.48999977  14.40999985  59.38000107
H    22.49000168  15.51000023  59.98000336
H    21.18999863  15.40999985  64.06999969
H    13.26000023  14.85000038  63.81000137
H    24.01000023  16.39000130  61.81999969
H    23.25000000  16.95999908  63.30999756
S    12.56999969  13.89999962  59.13999939
C     9.85999966  13.67000008  59.92000198
C    11.17000008  13.96999931  60.21999741
C    11.56000042  14.42000008  61.52000046
C    10.57000065  14.60999966  62.47000122
C     9.30000019  14.04000092  62.25000000
C     8.25000000  14.06999969  63.22000122
C     6.94999981  13.75000000  62.91999817
C     6.57000017  13.40000057  61.59999847
C     7.49000025  13.45000076  60.58000183
C     8.85000038  13.73999977  60.91999817
C    13.00000000  14.56999969  61.66999817
C    13.68999958  14.18000031  60.48999786
C    15.06999969  14.06000042  60.43000031
C     5.09999990  13.22000027  61.25999832
H     4.89987612  13.54162693  60.23793793
H     9.53999996  13.55000019  58.88999939
H    10.85000038  14.89999962  63.47999954
H     8.56000042  14.42999935  64.19000244
H     6.30000019  14.13000011  63.69999695
H     7.30999994  13.31999969  59.52000046
H    15.52000046  13.80000019  59.47000122
H     4.57999992  13.55999947  62.16999817
H     4.90999985  12.13999939  61.22000122
S    12.46999931  11.68000031  56.09000397
C     9.80000019  11.05000019  56.83000183
C    11.16000080  10.98999977  57.05999756
C    11.65999985  10.34000015  58.22999954
C    10.73999977   9.85999966  59.15000153
C     9.35000038  10.08999920  59.09000015
C     8.36999989   9.77000046  60.06999969
C     7.00999975   9.84000015  59.85000229
C     6.63000011  10.11999989  58.50999832
C     7.50000000  10.60999966  57.56000137
C     8.89999962  10.59999943  57.83000183
C    13.10999966  10.43000031  58.33000183
C    13.68000031  11.19999981  57.29000092
C    15.03000069  11.52999973  57.18999863
C     5.29999971   9.55999947  58.06999969
H     5.04476404   9.99957275  57.10577393
H     9.52999973  11.61000061  55.94999695
H    11.16000080   9.35999966  60.02999878
H     8.69000053   9.39000034  61.04000092
H     6.25000000   9.50000000  60.54000092
H     7.23999977  10.76000023  56.51000214
H    15.53999996  12.10000038  56.40999603
H     5.36000013   8.47000027  57.93000031
H     4.53999996   9.72999954  58.83999634
S    16.39999962  10.11000061  60.66999817
C    19.02000046  10.72000027  60.02999878
C    17.69000053  10.82999992  59.69999695
C    17.20999908  11.39999962  58.47999954
C    18.13999939  11.97000027  57.62000275
C    19.52000046  11.94000053  57.94000244
C    20.51000214  12.39999962  57.02000046
C    21.83000183  12.38000011  57.36999893
C    22.21999931  11.80999947  58.61000061
C    21.34000015  11.28000069  59.52999878
C    19.96999931  11.33999920  59.16999817
C    15.80000019  11.13000011  58.29000092
C    15.22999954  10.44000053  59.38999939
C    13.90999985   9.98000050  59.38000107
C    23.68000031  11.64000034  58.95999908
H    23.87917519  11.54041290  60.02700806
H    19.37999916  10.29999924  60.97000122
H    17.84000015  12.30999947  56.63999939
H    20.23999977  12.89000034  56.07999802
H    22.53999901  12.82999992  56.69000244
H    21.68999863  10.72000027  60.38999939
H    13.53999996   9.39000034  60.20999908
H    24.30000114  12.42000008  58.50000000
H    24.01000023  10.73999977  58.41999817
