96

S    16.59000015  15.59000015  64.05000305
C    19.29999924  15.73999977  63.43999863
C    18.04000092  15.36000061  63.04999924
C    17.70000076  14.93999958  61.72000122
C    18.68000031  14.85999966  60.75000000
C    20.02000046  14.91000080  61.19999695
C    21.02999878  14.60999966  60.25000000
C    22.32999992  14.89999962  60.58000183
C    22.67000008  15.39000034  61.86000061
C    21.70000076  15.52000046  62.84000015
C    20.31999969  15.36999893  62.52999878
C    16.28000069  14.67000008  61.56000137
C    15.54999924  15.05000019  62.71999741
C    14.15999985  15.11999989  62.76000214
C    24.09000015  15.72999954  62.25999832
H    24.45299149  15.20330524  63.14256668
H    19.55999947  16.13999939  64.41999817
H    18.43000031  14.75999928  59.68999863
H    20.85000038  14.22000027  59.25000000
H    23.05999947  14.73999977  59.79000092
H    21.94000053  15.97000027  63.80000305
H    13.63000011  15.64000034  63.55999756
H    24.71999931  15.43000031  61.40999603
H    24.03000069  16.81999969  62.39999771
S    13.07999992  14.25000000  59.06000137
C    10.36000061  14.42999935  59.61999893
C    11.65999985  14.52000046  60.07999802
C    12.01000023  14.84000015  61.43000031
C    10.93000031  15.03999901  62.25999832
C     9.56999969  14.88999939  61.88999939
C     8.45000076  14.98999977  62.75000000
C     7.14999962  14.73999977  62.36999893
C     6.91999960  14.25000000  61.05999756
C     7.95000029  14.18000031  60.14999771
C     9.30000019  14.42000008  60.54999924
C    13.45999908  14.81999969  61.59000015
C    14.19000053  14.45000076  60.43000031
C    15.57000065  14.25000000  60.43000031
C     5.55999994  13.71000099  60.65999985
H     5.04621220  14.33796310  59.93213654
H    10.10000038  14.02999973  58.64999771
H    11.16000080  15.43000031  63.25000000
H     8.67000008  15.26999950  63.77999878
H     6.32000017  14.84000015  63.06000137
H     7.64999962  13.93000031  59.13999939
H    16.13000107  13.93000031  59.54999924
H     4.86999989  13.56999969  61.50000000
H     5.69999981  12.72999954  60.19000244
S    12.79999924  12.05999947  55.80999756
C    10.11999989  11.95000076  56.62000275
C    11.44000053  11.65999985  56.88000107
C    11.79999924  11.05000019  58.11999893
C    10.86999989  10.67999935  59.08000183
C     9.50000000  10.82999992  58.75999832
C     8.42000008  10.29000092  59.50000000
C     7.09000015  10.42000008  59.15000153
C     6.75000000  11.05999947  57.93000031
C     7.76999998  11.56999969  57.15999985
C     9.13999939  11.50000000  57.54000092
C    13.25000000  10.93999958  58.13000107
C    13.94999981  11.56000042  57.05999756
C    15.34000015  11.67000008  57.04000092
C     5.28999996  11.30000019  57.62000275
H     4.91982031  10.67354202  56.80844879
H     9.75000000  12.41000080  55.70000076
H    11.09000015  10.29999924  60.06999969
H     8.76999950   9.56999969  60.24000168
H     6.32999992  10.10000038  59.85000229
H     7.50000000  12.03999996  56.22000122
H    15.88000107  12.10000038  56.20999908
H     4.86000013  10.93999958  58.56999969
H     5.36000013  12.38000011  57.45999908
S    16.45000076  10.27999973  60.58000183
C    19.18000031  10.57000065  59.92000198
C    17.85000038  10.84000015  59.65000153
C    17.46999931  11.52999973  58.44999695
C    18.39999962  12.03999996  57.56000137
C    19.78000069  11.90999985  57.84999847
C    20.85000038  12.27000046  56.98999786
C    22.15999985  12.17000008  57.42000198
C    22.49000168  11.39999962  58.55999756
C    21.47999954  11.05000019  59.43000031
C    20.10999870  11.18999958  59.05000305
C    16.03999901  11.39000034  58.22000122
C    15.34000015  10.77999973  59.29000092
C    14.00000000  10.43000031  59.20000076
C    23.90999985  11.13999939  59.01000214
H    24.20878410  11.65931320  59.92057419
H    19.45000076  10.11000061  60.86000061
H    18.12999916  12.23999977  56.52999878
H    20.59999847  12.56999969  55.97000122
H    23.00000000  12.46000099  56.79999924
H    21.84000015  10.48999977  60.28999710
H    13.48999977   9.89999962  60.00000000
H    24.64999962  11.18000031  58.20000076
H    23.92999840  10.08999920  59.34999847
