96

S    15.88000107  14.92000008  64.45000458
C    18.55999947  15.07999992  63.73000336
C    17.28000069  14.73999977  63.36999893
C    16.87999916  14.32000065  62.05999756
C    17.89999962  14.22999954  61.12999725
C    19.26000023  14.48999977  61.45000076
C    20.34000015  14.39000034  60.52999878
C    21.61999893  14.70999908  60.90000153
C    21.88999939  15.29999924  62.16999817
C    20.90999985  15.32999992  63.13999939
C    19.59000015  14.96999931  62.76000214
C    15.44000053  14.11999893  62.01000214
C    14.73000050  14.51000023  63.16999817
C    13.34000015  14.57999992  63.20000076
C    23.29999924  15.62999916  62.58999634
H    23.59947014  15.10235977  63.49554443
H    18.79999924  15.40999985  64.73999786
H    17.71000099  14.27999973  60.06000137
H    20.03000069  14.01999950  59.54999924
H    22.40999985  14.63000107  60.15999603
H    21.14000130  15.69000053  64.13999939
H    12.76000023  14.65000057  64.11000061
H    23.95999908  15.36000061  61.76000214
H    23.42000008  16.69000053  62.84999847
S    12.15999985  13.55999947  59.58000183
C     9.40999985  13.76000023  60.30000305
C    10.73999977  13.89999962  60.59000015
C    11.16000080  14.30999947  61.90000153
C    10.24000072  14.40999985  62.91999817
C     8.86999989  14.17000008  62.64999771
C     7.90000010  14.29999924  63.67000198
C     6.57000017  14.04999924  63.40000153
C     6.17000008  13.68999958  62.09000015
C     7.03999996  13.73999977  61.03000259
C     8.42000008  13.96999931  61.29000092
C    12.61000061  14.42000008  62.01000214
C    13.30999947  14.00000000  60.86000061
C    14.68000031  13.76999950  60.89000320
C     4.71000004  13.35999966  61.84000015
H     4.27553606  13.90129852  60.99956131
H     9.13999939  13.40999985  59.29999924
H    10.55999947  14.52000046  63.95000076
H     8.17000008  14.55000019  64.69999695
H     5.79999971  14.04000092  64.16999817
H     6.80000019  13.50000000  59.99000168
H    15.05000019  13.30999947  59.98000336
H     4.28999996  13.68000031  62.80000305
H     4.72000027  12.27000046  61.72999954
S    12.46999931  11.79999924  56.36000061
C     9.82999992  11.13999939  57.09000015
C    11.18000031  11.11999989  57.36999893
C    11.72999954  10.48999977  58.54000092
C    10.85000038   9.96000004  59.45999908
C     9.46000004   9.94000053  59.20999908
C     8.50000000   9.38000011  60.10000229
C     7.13999987   9.38000011  59.88999939
C     6.63000011  10.03000069  58.74000168
C     7.51999950  10.59999943  57.85999680
C     8.93000031  10.59000015  58.02999878
C    13.17999935  10.57999992  58.59000397
C    13.71999931  11.35000038  57.52999878
C    15.07999992  11.63000011  57.50000000
C     5.13000011  10.14000034  58.61000061
H     4.80475855  10.31676197  57.58478165
H     9.51000023  11.80999947  56.29000092
H    11.26000023   9.61999989  60.40999985
H     8.86999989   8.85000038  60.97000122
H     6.51000023   9.00000000  60.70000076
H     7.22000027  10.95000076  56.88000107
H    15.55999947  12.05000019  56.62000275
H     4.61000013   9.22999954  58.93000031
H     4.76000023  10.98999977  59.20999908
S    16.51000023  10.00000000  60.86999893
C    19.10000038  10.52999973  60.14999771
C    17.78000069  10.82999992  59.93999863
C    17.29999924  11.44999981  58.74000168
C    18.20000076  11.82000065  57.75000000
C    19.59000015  11.59999943  57.93000031
C    20.55000114  12.06999969  56.98999786
C    21.88999939  12.05999947  57.29000092
C    22.29999924  11.57999992  58.55999756
C    21.40000153  11.10999966  59.47999954
C    20.00999832  11.00999928  59.16999817
C    15.85999966  11.32999992  58.62999725
C    15.31999969  10.53999996  59.66999817
C    13.96999931  10.18000031  59.68000031
C    23.69999886  11.92999935  59.03999710
H    23.90652466  11.62377167  60.06550598
H    19.45999908  10.01999950  61.04000092
H    17.84000015  12.23999977  56.81000137
H    20.19000053  12.61000061  56.11000061
H    22.50000000  12.76999950  56.73999786
H    21.70999908  10.85999966  60.50000000
H    13.53000069   9.64999962  60.51000214
H    23.92000008  12.98999977  58.86000061
H    24.40999985  11.44000053  58.36000061
