96

S    15.75000000  14.73999977  64.52999878
C    18.45999908  14.85000038  63.90999603
C    17.18000031  14.50000000  63.52000427
C    16.87999916  14.27999973  62.14000320
C    17.90999985  14.26000023  61.20999908
C    19.22999954  14.56999969  61.59000015
C    20.31999969  14.73999977  60.68999863
C    21.57999992  15.13000011  61.05999756
C    21.86000061  15.43000031  62.42000198
C    20.81999969  15.32999992  63.31999969
C    19.51000023  14.92000008  62.95999908
C    15.43000031  14.27000046  61.97999954
C    14.65999985  14.39000034  63.16999817
C    13.28999996  14.57999992  63.25000000
C    23.23999786  15.84000015  62.87000275
H    23.56009483  15.24248600  63.72359085
H    18.61999893  15.11999989  64.94999695
H    17.73999977  14.25000000  60.13000107
H    20.12000084  14.60999966  59.62999725
H    22.29999924  15.10000038  60.25000000
H    21.00000000  15.62000084  64.36000061
H    12.84000015  14.60000038  64.23999786
H    23.94000053  15.62000084  62.04999924
H    23.28000069  16.90000153  63.16999817
S    12.17000008  14.18000031  59.47000122
C     9.43000031  13.96000004  60.18000031
C    10.73999977  14.21000004  60.52000046
C    11.10000038  14.35999966  61.90000153
C    10.13000011  14.34000015  62.88999939
C     8.76000023  14.15999985  62.57999802
C     7.72000027  14.17000008  63.54999924
C     6.38999987  14.04000092  63.20999908
C     6.12999964  13.68000031  61.86000061
C     7.11000013  13.52000046  60.90000153
C     8.45000076  13.88000011  61.19999695
C    12.53999901  14.40999985  62.08000183
C    13.26000023  14.25000000  60.86999893
C    14.65000057  14.18000031  60.83000183
C     4.69000006  13.43000031  61.49000168
H     4.43355131  13.95714474  60.57106018
H     9.26000023  13.83999920  59.12000275
H    10.51000023  14.28999996  63.90999603
H     8.07999992  14.27999973  64.56999969
H     5.61999989  14.07999992  63.95999908
H     6.86999989  13.19000053  59.88999939
H    15.21000004  13.92000008  59.93000031
H     4.03999996  13.71000099  62.32999802
H     4.44999981  12.36999989  61.37000275
S    16.05999947  15.36999893  57.94000244
C    18.76000023  15.44000053  57.41000366
C    17.48999977  15.31000042  56.90000153
C    17.19000053  15.08999920  55.51000214
C    18.29000092  15.01000023  54.68000031
C    19.63000107  15.18000031  55.11000061
C    20.76000023  15.11000061  54.25000000
C    22.01000023  15.54999924  54.64000320
C    22.20000076  15.98000050  55.97999954
C    21.14000130  15.93999958  56.86000061
C    19.85000038  15.46000004  56.51000214
C    15.75000000  15.01999950  55.31000137
C    15.01999950  15.26000023  56.50000000
C    13.63999939  15.38000011  56.52999878
C    23.52999878  16.52000046  56.45999908
H    23.99365616  15.77101707  57.10198593
H    18.92000008  15.72999954  58.43999863
H    18.13999939  14.63999939  53.67000198
H    20.53999901  14.86999989  53.22000122
H    22.77000046  15.77000046  53.89999771
H    21.31999969  16.31000137  57.87000275
H    13.10999966  15.22999954  57.47000122
H    24.10000038  16.54000092  55.52000046
H    23.54000092  17.52000046  56.90999985
S    12.61999989  14.57999992  52.83000183
C     9.98000050  14.02999973  53.59000397
C    11.21999931  14.52999973  53.92000198
C    11.46999931  15.11000061  55.20000076
C    10.50000000  15.21000004  56.18999863
C     9.19999981  14.78000069  55.83000183
C     8.14999962  14.81999969  56.79999924
C     6.91999960  14.26000023  56.56000137
C     6.65000010  13.73000050  55.27000046
C     7.63999987  13.66000080  54.31999969
C     8.94999981  14.15999985  54.55999756
C    12.89000034  15.36999893  55.34999847
C    13.64999962  15.08999920  54.18000031
C    15.00000000  14.78999996  54.15000153
C     5.25000000  13.28999996  54.91000366
H     4.76020670  13.97854996  54.22145462
H     9.76000023  13.50000000  52.67000198
H    10.69000053  15.57000065  57.19999695
H     8.48999977  15.34999943  57.68000031
H     6.19999981  14.37999916  57.36000061
H     7.57000017  13.20000076  53.34000015
H    15.52000046  14.68999958  53.20000076
H     4.56999969  13.17000008  55.76000214
H     5.38999987  12.31999969  54.40999985
