96

S    16.03000069  15.47000027  64.08999634
C    18.68000031  15.29000092  63.48999786
C    17.40999985  14.93000031  63.11000061
C    16.95999908  14.51000023  61.81999969
C    17.93000031  14.57999992  60.84000015
C    19.29999924  14.75999928  61.14999771
C    20.36000061  14.70999908  60.20000076
C    21.63000107  15.17000008  60.45000076
C    21.94000053  15.65999985  61.75000000
C    20.98999977  15.59999943  62.75000000
C    19.68000031  15.13000011  62.49000168
C    15.51000023  14.35999966  61.72999954
C    14.86999989  14.89999962  62.88000107
C    13.50000000  15.05000019  63.04000092
C    23.31999969  16.20000076  62.02000046
H    23.73360062  15.71509075  62.90425110
H    18.95000076  15.86999989  64.36999512
H    17.54999924  14.37999916  59.84000397
H    20.06000137  14.48999977  59.18000031
H    22.32999992  15.25000000  59.61999893
H    21.18000031  15.90000057  63.77999878
H    12.94999981  15.36999893  63.92000198
H    23.92000008  16.01000023  61.11999893
H    23.36000061  17.29999924  62.08000183
S    12.23000050  13.97999954  59.40999985
C     9.56999969  13.85000038  60.20999908
C    10.86999989  14.19000053  60.52000046
C    11.23999977  14.68999958  61.81000137
C    10.25000000  14.82999992  62.76000214
C     8.89999962  14.55999947  62.43999863
C     7.88000011  14.55999947  63.43999863
C     6.57000017  14.22999954  63.15999985
C     6.19000006  13.88000011  61.84000015
C     7.14999962  13.82999992  60.84999847
C     8.52000046  14.09999943  61.12999725
C    12.69000053  14.75000000  61.93000031
C    13.35000038  14.30999947  60.75000000
C    14.72000027  14.11999893  60.61000061
C     4.79999971  13.36999989  61.52999878
H     4.43551207  13.91315842  60.65808868
H     9.34000015  13.45999908  59.22999954
H    10.48999977  15.08999920  63.79000092
H     8.15999985  14.70999908  64.47000122
H     5.84999990  14.14999962  63.96999741
H     6.84000015  13.45999908  59.87999725
H    15.14999962  13.99000072  59.61999893
H     4.09000015  13.53999996  62.35000229
H     4.80999994  12.28999996  61.32999802
S    12.58999920  11.56999969  56.55000305
C     9.96999931  11.25000000  57.27000427
C    11.28000069  11.05000019  57.62000275
C    11.77999973  10.39000034  58.80000305
C    10.82999992   9.98999977  59.72000122
C     9.46000004  10.27999973  59.51000214
C     8.46000004   9.78999996  60.40999985
C     7.14999962  10.11999989  60.20000076
C     6.72999954  10.72999954  58.97999573
C     7.65999985  11.13000011  58.04999924
C     9.03999996  10.90000057  58.29000092
C    13.21000004  10.62000084  58.94000244
C    13.78999901  11.26000023  57.81999969
C    15.14999962  11.54000092  57.75000000
C     5.27999973  11.02000046  58.68999863
H     4.92375994  10.47851562  57.81364822
H     9.68000031  11.69999981  56.31999969
H    11.16000080   9.50000000  60.63000107
H     8.78999996   9.27999973  61.31000137
H     6.46000004   9.77000046  60.96000290
H     7.36999989  11.68000031  57.15999985
H    15.42000008  12.18999958  56.93000031
H     4.63999987  10.82999992  59.55999756
H     5.21000004  12.10999966  58.52000427
S    16.63999939  10.10000038  61.13999939
C    19.31999969  10.70000076  60.44000244
C    17.97000122  10.71000004  60.13999939
C    17.47999954  11.31000042  58.94000244
C    18.39999962  11.87999916  58.08000183
C    19.79999924  11.84999943  58.31999969
C    20.69000053  12.48999977  57.41000366
C    22.03000069  12.51999950  57.74000168
C    22.56999969  11.97999954  58.93000031
C    21.67000008  11.32999992  59.75000000
C    20.27000046  11.26000023  59.54000092
C    16.03999901  11.18999958  58.76999664
C    15.44999981  10.59999943  59.92000198
C    14.06999969  10.48999977  60.04000092
C    24.03000069  12.20999908  59.23999786
H    24.26424980  11.77699471  60.21248627
H    19.70000076  10.19999981  61.32999802
H    18.11000061  12.31999969  57.12999725
H    20.22999954  12.98999977  56.56000137
H    22.62000084  13.19000053  57.11999893
H    22.00000000  10.97000027  60.72000122
H    13.67000008  10.07999992  60.96000290
H    24.10000038  13.30000019  59.12000275
H    24.56000137  11.65999985  58.44999695
