96

S    15.82999992  15.55999947  64.40000153
C    18.57999992  15.70000076  63.70999908
C    17.27000046  15.43000031  63.36999893
C    16.95000076  14.93999958  62.06999969
C    17.92000008  14.75999928  61.09000397
C    19.27000046  15.06000042  61.40999603
C    20.20999908  14.78000069  60.38000107
C    21.53000069  15.03000069  60.68000031
C    21.90999985  15.54999924  61.93999863
C    20.96999931  15.80000019  62.91999817
C    19.56999969  15.60999966  62.70000076
C    15.51000023  14.84000015  61.90000153
C    14.75000000  15.15999985  63.04999924
C    13.35999966  15.11000061  63.13000107
C    23.35000038  15.75000000  62.34000397
H    23.67085075  14.95857239  63.01734924
H    18.71999931  15.80999947  64.77999878
H    17.64999962  14.47000027  60.07999802
H    19.92000008  14.30999947  59.45000076
H    22.21999931  14.85999966  59.85000229
H    21.25000000  15.97000027  63.95000076
H    12.88000011  15.44000053  64.04000092
H    24.05999947  15.75000000  61.50000000
H    23.52000046  16.69999886  62.87000275
S    12.39999962  13.61999989  59.52000046
C     9.70000076  13.71999931  60.10000229
C    10.98999977  13.96999931  60.52999878
C    11.26999950  14.57999992  61.79999924
C    10.21999931  14.84000015  62.65999603
C     8.88000011  14.65999985  62.25999832
C     7.73000002  14.88999939  63.06000137
C     6.43000031  14.60000038  62.70000076
C     6.23000050  14.04000092  61.40999603
C     7.30000019  13.73999977  60.59999847
C     8.64000034  14.04999924  60.97000122
C    12.71000004  14.70000076  61.95999908
C    13.43000031  14.30999947  60.79000092
C    14.81999969  14.37000084  60.77999878
C     4.90000010  13.36999989  61.13999939
H     4.37311459  13.95384598  60.38526917
H     9.52999973  13.30000019  59.10999680
H    10.32999992  15.36999893  63.61000061
H     7.90999985  15.36999893  64.01999664
H     5.65999985  14.59000015  63.46000290
H     7.11999989  13.20000076  59.66999817
H    15.44000053  14.04999924  59.94999695
H     4.30000019  13.27000046  62.04999924
H     5.19999981  12.34000015  60.89000320
S    16.21999931  16.02000046  57.87000275
C    18.92000008  16.09000015  57.22999954
C    17.65999985  15.67000008  56.88000107
C    17.34000015  15.26000023  55.54000092
C    18.32999992  15.17000008  54.58000183
C    19.68000031  15.39999962  54.97000122
C    20.75000000  15.31999969  54.03999710
C    22.03000069  15.64000034  54.40999985
C    22.36000061  16.07999992  55.72000122
C    21.30000114  16.28000069  56.58000183
C    19.96999931  15.84000015  56.31000137
C    15.90000057  15.11999989  55.37000275
C    15.18000031  15.51000023  56.52999878
C    13.78999901  15.44999981  56.55000305
C    23.81000137  16.39999962  56.00999832
H    24.19283867  15.82574272  56.85366058
H    19.13999939  16.61999893  58.15000153
H    18.12000084  15.10000038  53.52000427
H    20.52000046  15.11000061  52.98999786
H    22.79000092  15.62000084  53.64999771
H    21.54999924  16.77000046  57.50999832
H    13.36999989  15.64000034  57.54000092
H    24.33000183  16.28000069  55.06000137
H    23.94000053  17.46999931  56.23000336
S    12.75000000  14.51000023  52.88999939
C    10.05000019  14.21000004  53.47999954
C    11.28000069  14.67000008  53.87000275
C    11.64999962  15.05000019  55.20000076
C    10.62000084  15.06999969  56.12999725
C     9.30999947  14.75999928  55.70000076
C     8.26000023  14.94999981  56.63999939
C     6.94999981  14.72000027  56.30000305
C     6.61999989  14.27999973  54.99000168
C     7.59999990  13.97999954  54.06999969
C     8.96000004  14.27999973  54.38999939
C    13.09000015  15.19000053  55.37000275
C    13.86000061  14.88000011  54.22000122
C    15.24000072  14.80000019  54.18000031
C     5.18000031  13.89999962  54.72000122
H     4.81742573  14.57538414  53.94508362
H     9.96999931  13.86000061  52.45999908
H    10.85999966  15.39999962  57.14000320
H     8.52999973  15.29999924  57.63000107
H     6.21000004  14.59000015  57.08000183
H     7.42999983  13.55999947  53.08000183
H    15.85999966  14.52999973  53.33000183
H     4.55999994  13.90999985  55.63000107
H     5.14999962  12.89000034  54.31999969
