96

S    16.09000015  15.03000069  64.48999786
C    18.82999992  15.03000069  63.89999771
C    17.54999924  14.70999908  63.53000259
C    17.19000053  14.19000053  62.23999786
C    18.22999954  13.97999954  61.36000061
C    19.57999992  14.32999992  61.59999847
C    20.65000153  14.04999924  60.70999908
C    21.97000122  14.21000004  61.07999802
C    22.23999977  14.78000069  62.35000229
C    21.21000099  15.05000019  63.22999954
C    19.84000015  14.80999947  62.93000031
C    15.75000000  14.13000011  62.02999878
C    15.01999950  14.67000008  63.11999893
C    13.63999939  14.78999996  63.13999939
C    23.62999916  15.26000023  62.70000076
H    24.10919762  14.62345600  63.44382858
H    19.10000038  15.48999977  64.84999847
H    18.07999992  13.28999996  60.52999878
H    20.40999985  13.59000015  59.75000000
H    22.77000046  14.01000023  60.37000275
H    21.45999908  15.39999962  64.22999573
H    13.21000004  14.98999977  64.12000275
H    24.28999901  15.34999943  61.83000183
H    23.52000046  16.27000046  63.11999893
S    12.53000069  13.42000008  59.56999969
C     9.78999996  13.43999958  60.31999969
C    11.10999966  13.66000080  60.61000061
C    11.46999931  14.15999985  61.90000153
C    10.51000023  14.40999985  62.87000275
C     9.15000057  14.19999981  62.56000137
C     8.01999950  14.40999985  63.40000153
C     6.71000004  14.18000031  63.04999924
C     6.38999987  13.71000099  61.75000000
C     7.40999985  13.55999947  60.84999847
C     8.76000023  13.81000042  61.23000336
C    12.89000034  14.44000053  62.01000214
C    13.60999966  13.99000072  60.86999893
C    14.98000050  13.78000069  60.90999985
C     4.98000002  13.30000019  61.37000275
H     4.57354975  13.82767296  60.50718307
H     9.55000019  12.84999943  59.43999863
H    10.67999935  14.77000046  63.88000107
H     8.13000011  14.73000050  64.43999481
H     5.91000032  14.42999935  63.73000336
H     7.18999958  12.93000031  59.99000168
H    15.47000027  13.43999958  60.00999832
H     4.23999977  13.40999985  62.16999817
H     5.03000021  12.22000027  61.16000366
S    16.36000061  15.03999901  57.90000153
C    19.04999924  15.36999893  57.08000183
C    17.73999977  15.05000019  56.79000092
C    17.35999870  14.70000076  55.45999908
C    18.35000038  14.52000046  54.51000214
C    19.68000031  14.86999989  54.79999924
C    20.75000000  14.68000031  53.88999939
C    22.06000137  14.96000099  54.19000244
C    22.39000130  15.60999966  55.40999985
C    21.40000153  15.80000019  56.33999634
C    20.06000137  15.40999985  56.09000397
C    15.92000008  14.68000031  55.25000000
C    15.27999973  14.85000038  56.50000000
C    13.89000034  14.94999981  56.59000015
C    23.82999802  15.93999958  55.72999954
H    24.26225471  15.33059120  56.52364731
H    19.38999939  15.55999947  58.09999847
H    18.04000092  14.19000053  53.52000427
H    20.59000015  14.22000027  52.90999985
H    22.79000092  14.59000015  53.47000122
H    21.60000038  16.25000000  57.30999756
H    13.31999969  15.14000034  57.49000168
H    24.37000084  15.71000004  54.79999924
H    23.85000038  17.02999878  55.90999985
S    12.56999969  14.14999962  52.97000122
C     9.98000050  13.52000046  53.92000198
C    11.23999977  14.01000023  54.13999939
C    11.67000008  14.39000034  55.45999908
C    10.73999977  14.55999947  56.46999741
C     9.40999985  14.13000011  56.30000305
C     8.38000011  14.34000015  57.25000000
C     7.04999971  14.14000034  56.97999954
C     6.71000004  13.68999958  55.66999817
C     7.69000006  13.31999969  54.78000259
C     9.07999992  13.55999947  55.01999664
C    13.09999943  14.63999939  55.47999954
C    13.76000023  14.52999973  54.22999954
C    15.14000034  14.60000038  54.09000015
C     5.27999973  13.69999981  55.17000198
H     5.15191507  13.74269485  54.08839417
H     9.61999989  13.19000053  52.95000076
H    11.05999947  15.06000042  57.38999939
H     8.69999981  14.85000038  58.15999985
H     6.24000025  14.60000038  57.54000092
H     7.40000010  13.02000046  53.77999878
H    15.50000000  14.51000023  53.06999969
H     4.80999994  14.56999969  55.63999939
H     4.71000004  12.81999969  55.50000000
