96

S    16.01000023  14.78999996  64.61999512
C    18.71000099  15.10000038  63.83999634
C    17.38999939  14.88999939  63.50999832
C    16.97999954  14.52999973  62.18000031
C    17.97000122  14.35999966  61.23000336
C    19.31999969  14.70000076  61.50000000
C    20.36000061  14.73000050  60.54000092
C    21.64999962  15.10000038  60.86000061
C    21.98999786  15.39999962  62.19999695
C    21.07000160  15.26000023  63.20999908
C    19.71999931  15.00000000  62.84999847
C    15.53999996  14.32000065  62.09000015
C    14.85000038  14.42000008  63.31999969
C    13.47000027  14.52999973  63.41999817
C    23.42000008  15.78999996  62.51999664
H    23.72559547  15.54125977  63.53628540
H    18.95000076  15.31999969  64.87999725
H    17.71000099  14.07999992  60.21999741
H    20.10999870  14.55999947  59.48999786
H    22.46000099  15.06999969  60.13999939
H    21.27000046  15.59999943  64.22999573
H    13.07000065  14.65000057  64.43000031
H    24.06999969  15.26999950  61.79999924
H    23.45000076  16.87000084  62.29999924
S    12.23999977  14.22999954  59.68999863
C     9.57999992  13.94000053  60.40999985
C    10.85999966  14.25000000  60.79999924
C    11.23999977  14.53999996  62.15000153
C    10.21999931  14.52999973  63.09999847
C     8.88000011  14.32999992  62.71999741
C     7.82000017  14.42999935  63.66000366
C     6.52999973  14.04999924  63.34999847
C     6.25999975  13.67000008  62.01000214
C     7.18999958  13.68999958  60.98999786
C     8.52999973  14.01000023  61.36000061
C    12.69000053  14.48999977  62.25999832
C    13.38000107  14.42999935  61.03000259
C    14.77000046  14.34999943  60.91999817
C     4.82999992  13.32999992  61.65999985
H     4.55254173  14.02008820  60.86319733
H     9.44000053  13.42000008  59.45999908
H    10.39999962  14.61999989  64.16999817
H     8.03999996  14.70000076  64.69000244
H     5.78000021  14.13000011  64.12000275
H     6.96000004  13.35000038  59.99000168
H    15.21000004  14.45000076  59.93999863
H     4.19000006  13.52000046  62.52999878
H     4.77999973  12.34000015  61.18000031
S    16.27000046  15.44999981  57.84999847
C    18.92000008  15.85999966  56.97000122
C    17.65999985  15.34999943  56.75000000
C    17.23999977  14.93000031  55.45000076
C    18.20000076  14.77000046  54.47000122
C    19.48999977  15.31999969  54.62999725
C    20.52999878  15.22999954  53.64999771
C    21.78999901  15.65999985  53.99000168
C    22.14999962  16.22999954  55.24000168
C    21.14999962  16.40999985  56.17000198
C    19.85999870  15.86999989  55.90999985
C    15.78999996  14.98999977  55.31999969
C    15.10000038  15.14999962  56.55000305
C    13.71999931  15.32999992  56.60999680
C    23.59000015  16.54999924  55.56000137
H    24.10190392  16.00965691  56.35629654
H    19.04999924  16.31000137  57.95999908
H    17.80999947  14.22000027  53.61999893
H    20.40999985  14.94999981  52.61000061
H    22.63000107  15.52000046  53.30999756
H    21.34000015  16.92000008  57.11000061
H    13.35000038  15.65999985  57.57999802
H    24.25000000  16.62999916  54.68000031
H    23.57999992  17.61000061  55.84000015
S    12.42000008  14.52999973  52.98999786
C     9.72999954  14.32999992  53.89999771
C    11.05000019  14.65999985  54.09999847
C    11.51000023  15.01000023  55.40999985
C    10.59000015  15.06999969  56.45000076
C     9.22000027  14.80000019  56.24000168
C     8.19999981  14.88999939  57.22999954
C     6.88000011  14.65999985  56.93999863
C     6.47000027  14.22999954  55.65000153
C     7.40999985  14.06000042  54.65999985
C     8.78000069  14.32000065  54.95999908
C    12.94999981  15.14999962  55.45999908
C    13.63000011  14.89999962  54.22999954
C    15.01999950  14.91000080  54.15999985
C     5.03999996  14.01000023  55.21999741
H     4.81923008  14.45866108  54.25146103
H     9.42000008  14.06999969  52.88999939
H    10.88000107  15.47000027  57.42000198
H     8.50000000  15.36999893  58.15999985
H     6.14000034  14.81999969  57.71999741
H     7.11000013  13.63999939  53.69999695
H    15.54999924  14.88000011  53.20999908
H     4.36999989  14.39000034  56.00999832
H     4.97000027  12.93000031  55.04000092
