96

S    15.72999954  15.05000019  64.45999908
C    18.39999962  15.21999931  63.76999664
C    17.14999962  14.75000000  63.43999863
C    16.77000046  14.32999992  62.12999725
C    17.82999992  14.13000011  61.25999832
C    19.17000008  14.47999954  61.55000305
C    20.25000000  14.30999947  60.63000107
C    21.51000023  14.70999908  61.00000000
C    21.77999878  15.26000023  62.28000259
C    20.73999786  15.57999992  63.13000107
C    19.42000008  15.18000031  62.77999878
C    15.32999992  14.37000084  61.90999985
C    14.63999939  14.67000008  63.11000061
C    13.26000023  14.88999939  63.18999863
C    23.18000031  15.69000053  62.63000107
H    23.68478394  15.03591442  63.34096146
H    18.61999893  15.71000004  64.70999908
H    17.65999985  13.61999989  60.31999969
H    19.98999977  13.89000034  59.65999985
H    22.23999977  14.67000008  60.20000076
H    20.93000031  16.15999985  64.02999878
H    12.79999924  15.15999985  64.13000488
H    23.72999954  15.78999996  61.69000244
H    23.09999847  16.69000053  63.06999969
S    12.13999939  13.59000015  59.56999969
C     9.43000031  13.60999966  60.33000183
C    10.75000000  13.76999950  60.65999985
C    11.11999989  14.25000000  61.95999908
C    10.11000061  14.46000004  62.88000107
C     8.73000050  14.27999973  62.61000061
C     7.69000006  14.68999958  63.50000000
C     6.37000036  14.61999989  63.15000153
C     5.98999977  14.09999943  61.88999939
C     7.00000000  13.71999931  61.04000092
C     8.39999962  13.86000061  61.27999878
C    12.55000019  14.51000023  62.04000092
C    13.22999954  14.14000034  60.86000061
C    14.60999966  14.04000092  60.76000214
C     4.55000019  13.68999958  61.68000031
H     4.14312172  14.20395184  60.80913544
H     9.25000000  13.10999966  59.38000107
H    10.43000031  14.80999947  63.86000061
H     8.00000000  14.88000011  64.52999878
H     5.68000031  14.57999992  64.00000000
H     6.86999989  13.27000046  60.06000137
H    15.15999985  13.50000000  59.99000168
H     3.93000007  13.88000011  62.56999969
H     4.40000010  12.64000034  61.39999771
S    12.69999981  11.57999992  55.90000153
C    10.01999950  11.40999985  56.68000031
C    11.32999992  11.03999996  56.88999939
C    11.80999947  10.46000004  58.09999847
C    10.93000031  10.10000038  59.09999847
C     9.55999947  10.39000034  58.90999603
C     8.64999962  10.00000000  59.93000031
C     7.30999994  10.19999981  59.69999695
C     6.84000015  10.85999966  58.54000092
C     7.71000004  11.21999931  57.52999878
C     9.10000038  10.98000050  57.68000031
C    13.26000023  10.47999954  58.27000046
C    13.86999989  11.07999992  57.14000320
C    15.19999981  11.47999954  57.15999985
C     5.36000013  11.13999939  58.36999893
H     4.99561453  10.73274517  57.42688370
H     9.63000011  11.97999954  55.84000015
H    11.28000069   9.65999985  60.02999878
H     8.98999977   9.65999985  60.90000153
H     6.58999968   9.92000008  60.45999908
H     7.35000038  11.76000023  56.65999985
H    15.55999947  12.00000000  56.27999878
H     4.82999992  10.71000004  59.22999954
H     5.26999998  12.23999977  58.36000061
S    16.42000008  10.34000015  60.79999924
C    19.10000038  10.80000019  60.22999573
C    17.79999924  10.78999996  59.78000259
C    17.39999962  11.28000069  58.48999786
C    18.39999962  11.82999992  57.70999908
C    19.76000023  11.67000008  58.04999924
C    20.76000023  11.82000065  57.04000092
C    22.07999992  11.59000015  57.34000397
C    22.43999863  11.17000008  58.63999939
C    21.51000023  10.98999977  59.64000320
C    20.13000107  11.26000023  59.38000107
C    15.97000027  11.13999939  58.27999878
C    15.34000015  10.52999973  59.40000153
C    13.99000072  10.21999931  59.43999863
C    23.85999870  10.72999954  58.94000244
H    24.25036430  11.12746239  59.87688065
H    19.27000046  10.32999992  61.19999695
H    18.17000008  12.18999958  56.70999908
H    20.45999908  12.13000107  56.04999924
H    22.80999947  11.80999947  56.56000137
H    21.73000145  10.31999969  60.45999908
H    13.48000050   9.81000042  60.31000137
H    24.56000137  11.10999966  58.20000076
H    23.87000084   9.63000011  59.00000000
