96

S    15.93999958  15.34000015  64.41999817
C    18.63000107  15.26000023  63.69999695
C    17.32999992  14.98000050  63.36999893
C    16.95000076  14.57999992  62.04999924
C    17.89999962  14.51000023  61.04999924
C    19.26000023  14.70999908  61.39999771
C    20.31999969  14.63000107  60.45000076
C    21.63000107  14.92000008  60.75000000
C    21.97000122  15.21999931  62.09999847
C    21.00000000  15.42000008  63.06000137
C    19.64999962  15.08999920  62.72999573
C    15.52000046  14.73999977  61.84999847
C    14.85000038  15.00000000  63.06000137
C    13.45999908  15.05000019  63.08000183
C    23.39999962  15.52999973  62.44999695
H    23.84892845  14.85304451  63.17683411
H    18.82999992  15.76000023  64.65000153
H    17.60000038  14.04000092  60.12000275
H    20.15999985  14.44000053  59.38999939
H    22.39000130  15.03000069  59.99000168
H    21.25000000  15.81999969  64.02999878
H    12.93000031  15.31000042  63.99000168
H    24.03000069  15.62999916  61.55000305
H    23.35000038  16.51000023  62.94000244
S    12.22000027  14.22999954  59.38000107
C     9.56999969  14.00000000  60.20000076
C    10.85999966  14.37000084  60.50000000
C    11.26999950  14.67000008  61.84000015
C    10.31999969  14.80999947  62.84999847
C     8.97999954  14.47999954  62.56000137
C     7.96000004  14.46000004  63.54999924
C     6.69000053  13.99000072  63.30999756
C     6.35999966  13.63999939  61.97999954
C     7.30000019  13.53000069  60.97999954
C     8.60000038  14.04999924  61.23000336
C    12.71999931  14.70999908  61.93999863
C    13.38000107  14.48999977  60.70000076
C    14.75999928  14.53999996  60.68000031
C     4.92999983  13.19000053  61.72000122
H     4.50891685  13.81805515  60.93492889
H     9.35999966  13.60999966  59.20999908
H    10.59000015  15.05000019  63.87000275
H     8.21000004  14.78999996  64.55000305
H     5.93999958  13.89000034  64.08999634
H     7.05999947  13.21000004  59.97000122
H    15.34000015  14.17000008  59.84000397
H     4.40000010  13.35000038  62.67000198
H     4.94999981  12.15999985  61.36000061
S    13.27999973  11.97000027  56.24000168
C    10.55999947  11.72000027  56.90999985
C    11.87999916  11.46000004  57.21000290
C    12.30000019  10.80000019  58.40999985
C    11.30000019  10.38000011  59.26000214
C     9.92999935  10.52999973  58.93000031
C     8.89999962   9.94999981  59.72999954
C     7.55999994  10.07999992  59.43999863
C     7.18999958  10.85999966  58.31999969
C     8.14000034  11.25000000  57.39999771
C     9.52000046  11.16000080  57.70000076
C    13.71999931  10.97000027  58.67000198
C    14.37000084  11.63000011  57.58999634
C    15.72999954  11.92000008  57.57999802
C     5.77000046  11.32999992  58.13999939
H     5.28622723  10.79642677  57.32185364
H    10.36000061  12.23000050  55.97999954
H    11.64999962   9.89999962  60.17000198
H     9.22000027   9.56999969  60.70000076
H     6.80999994   9.94000053  60.21999741
H     7.85000038  11.52999973  56.38000107
H    16.21000099  12.48000050  56.77999878
H     5.26000023  11.02000046  59.06000137
H     5.80999947  12.41000080  57.97999954
S    16.94000053  10.64000034  61.13999939
C    19.65999985  11.06999969  60.47999954
C    18.31999969  11.26000023  60.20999908
C    17.86999893  11.72999954  58.93000031
C    18.81000137  12.17000008  58.02000046
C    20.20000076  11.96000004  58.18999863
C    21.11000061  12.38000011  57.18000031
C    22.46999931  12.28999996  57.38999939
C    22.86999893  11.77000046  58.64999771
C    22.00000000  11.38000011  59.64000320
C    20.59000015  11.44999981  59.47999954
C    16.43000031  11.61999893  58.75000000
C    15.77999973  11.02000046  59.85000229
C    14.44000053  10.65999985  59.82999802
C    24.34000015  11.57999992  58.92000198
H    24.57405663  11.75731468  59.96970367
H    19.89999962  10.47000027  61.35000229
H    18.46999931  12.42000008  57.02000046
H    20.75000000  12.89000034  56.29000092
H    23.22000122  12.43000031  56.62000275
H    22.36000061  11.00000000  60.59999847
H    13.97999954  10.17000008  60.68000031
H    24.97999954  12.23999977  58.31999969
H    24.56000137  10.55999947  58.60000229
