96

S    15.73999977  15.10000038  64.47000122
C    18.37000084  15.46000004  63.76999664
C    17.12000084  15.07999992  63.34999847
C    16.77999878  14.75999928  62.00000000
C    17.84000015  14.52000046  61.13999939
C    19.17000008  14.70999908  61.59000015
C    20.29000092  14.57999992  60.70999908
C    21.59000015  14.78999996  61.09000397
C    21.84999847  15.29000092  62.38999939
C    20.79999924  15.59999943  63.22000122
C    19.45999908  15.24000072  62.88999939
C    15.32999992  14.65000057  61.88999939
C    14.63000107  14.89999962  63.09000015
C    13.25000000  14.93999958  63.16999817
C    23.23999786  15.69000053  62.84000015
H    23.63215446  15.09819984  63.66709518
H    18.44000053  15.90999985  64.75999451
H    17.69000053  14.26000023  60.10000229
H    20.00999832  14.48999977  59.65999985
H    22.43000031  14.75999928  60.40999985
H    20.93000031  16.05999947  64.19999695
H    12.63000011  15.19999981  64.02999878
H    24.04000092  15.65999985  62.09000015
H    23.15000153  16.76000023  63.06999969
S    12.18000031  13.76999950  59.43999863
C     9.55999947  13.45000076  60.20999908
C    10.84000015  13.76999950  60.59999847
C    11.17000008  14.32000065  61.88000107
C    10.08999920  14.57999992  62.70999908
C     8.76000023  14.19999981  62.44999695
C     7.75000000  14.37999916  63.43999863
C     6.46000004  14.01000023  63.13000107
C     6.15999985  13.55000019  61.81999969
C     7.13999987  13.32999992  60.87999725
C     8.50000000  13.66000080  61.13999939
C    12.60000038  14.59000015  61.97999954
C    13.22000027  14.45000076  60.70999908
C    14.60999966  14.37000084  60.72000122
C     4.69000006  13.42000008  61.51000214
H     4.36289549  14.08843136  60.71356964
H     9.32999992  12.84999943  59.34000015
H    10.32999992  15.06999969  63.64999771
H     8.13000011  14.61999989  64.43000031
H     5.75000000  13.96999931  63.95000076
H     6.96000004  12.92000008  59.88999939
H    15.13000011  13.96000004  59.86999893
H     4.17000008  13.63999939  62.44999695
H     4.57999992  12.35999966  61.25999832
S    16.00000000  15.51000023  57.94000244
C    18.71999931  15.72000027  57.16999817
C    17.42000008  15.38000011  56.88000107
C    17.05999947  14.96000099  55.56000137
C    18.04999924  14.84000015  54.59000015
C    19.36000061  15.27999973  54.87999725
C    20.32999992  15.34999943  53.83999634
C    21.67000008  15.57000065  54.09999847
C    22.07999992  15.85999966  55.41999817
C    21.14999962  15.90000057  56.43000031
C    19.76000023  15.65999985  56.20999908
C    15.62000084  14.80999947  55.41999817
C    14.89999962  15.11000061  56.59999847
C    13.50999928  15.10000038  56.68000031
C    23.52000046  16.14999962  55.77000046
H    23.88351250  15.35882664  56.42574692
H    18.89999962  15.95000076  58.22000122
H    17.88999939  14.35999966  53.62999725
H    20.07999802  15.11000061  52.81000137
H    22.43000031  15.46000004  53.33000183
H    21.32999802  16.27000046  57.43999863
H    12.94999981  15.40999985  57.55000305
H    24.21999931  16.28000069  54.93000031
H    23.50000000  17.10000038  56.32999802
S    12.42000008  14.11000061  53.02000046
C     9.67000008  14.14999962  53.72000122
C    11.00000000  14.30999947  54.06000137
C    11.36999989  14.73000050  55.37000275
C    10.31999969  14.82999992  56.26999664
C     8.94999981  14.70999908  55.93000031
C     7.94000053  14.98000050  56.90000153
C     6.65999985  14.57999992  56.62000275
C     6.26999950  14.22999954  55.30000305
C     7.22000027  14.07999992  54.31999969
C     8.57999992  14.42000008  54.56999969
C    12.81000042  14.70999908  55.52999878
C    13.55000019  14.42000008  54.34999847
C    14.93000031  14.53999996  54.23999786
C     4.80999994  13.99000072  54.99000168
H     4.39837694  14.72808266  54.30159760
H     9.48999977  13.76000023  52.71999741
H    10.54999924  15.06000042  57.30999756
H     8.30000019  15.26999950  57.88999939
H     5.92000008  14.60999966  57.41000366
H     7.09999990  13.59000015  53.36000061
H    15.40999985  14.34000015  53.27999878
H     4.25000000  14.06999969  55.91999817
H     4.63000011  12.94999981  54.69999695
