96

S    15.84000015  15.39000034  64.69999695
C    18.48999977  15.51000023  63.93000031
C    17.20999908  15.13000011  63.60000229
C    16.84999847  14.63000107  62.30999756
C    17.86999893  14.42999935  61.38999939
C    19.19000053  14.80999947  61.69000244
C    20.22000122  14.65000057  60.70999908
C    21.50000000  15.06000042  60.97000122
C    21.81999969  15.59999943  62.25000000
C    20.86000061  15.81999969  63.20000076
C    19.52999878  15.34999943  62.97999954
C    15.39999962  14.61999989  62.14000320
C    14.75999928  14.98999977  63.34999847
C    13.38000107  15.01999950  63.50999832
C    23.25000000  16.01000023  62.55000305
H    23.67752457  15.29745960  63.25541687
H    18.70000076  16.10999870  64.80000305
H    17.57999992  13.93000031  60.47000122
H    19.97999954  14.34000015  59.69999695
H    22.29999924  14.81999969  60.27000046
H    21.09999847  16.20000076  64.19000244
H    12.93000031  15.51000023  64.36999512
H    23.92999840  15.88000107  61.70000076
H    23.42000008  17.02000046  62.93000031
S    12.10000038  13.96999931  59.87999725
C     9.39999962  14.09999943  60.61000061
C    10.72000027  14.26000023  60.96000290
C    11.17000008  14.65000057  62.27000427
C    10.15999985  14.86999989  63.18000031
C     8.76999950  14.77000046  62.90000153
C     7.76999998  14.81999969  63.90999603
C     6.44000006  14.55999947  63.63999939
C     6.05999994  14.18000031  62.32999802
C     7.03000021  14.02999973  61.37000275
C     8.39999962  14.34999943  61.58000183
C    12.61999989  14.63999939  62.39999771
C    13.26000023  14.28999996  61.18000031
C    14.63000107  14.39000034  61.00000000
C     4.63000011  13.81000042  62.01000214
H     4.30931664  14.37297821  61.13346481
H     9.18000031  13.82999992  59.58000183
H    10.44999981  15.14999962  64.19000244
H     8.18000031  15.06000042  64.87999725
H     5.69999981  14.68999958  64.43000031
H     6.67999983  13.82999992  60.35999680
H    14.98000050  14.21000004  59.99000168
H     4.02999973  14.01000023  62.90000153
H     4.59000015  12.72999954  61.81999969
S    13.02000046  11.79999924  56.11000061
C    10.34999943  11.52999973  56.97000122
C    11.69000053  11.33999920  57.19999695
C    12.20000076  10.80000019  58.41999817
C    11.28999901  10.39999962  59.36999893
C     9.89000034  10.42000008  59.10999680
C     8.97000027   9.72000027  59.93999863
C     7.63999987   9.81999969  59.65000153
C     7.13999987  10.36999893  58.43999863
C     8.01999950  11.02000046  57.60000229
C     9.39999962  11.06999969  57.93000031
C    13.64999962  10.90999985  58.50999832
C    14.23999977  11.43000031  57.32999802
C    15.59000015  11.75000000  57.29999924
C     5.69999981  10.08999920  58.06999969
H     5.28132391  10.70736885  57.27522659
H    10.03000069  11.82000065  55.97999954
H    11.57999992  10.01000023  60.34000015
H     9.36999989   9.17000008  60.79000092
H     6.90000010   9.39000034  60.31999969
H     7.72000027  11.38000011  56.62000275
H    16.02000046  12.23999977  56.43000031
H     5.64000034   9.04999924  57.75000000
H     4.96000004  10.29000092  58.86000061
S    16.95999908  10.48999977  60.79999924
C    19.64999962  11.09000015  60.15999603
C    18.31999969  11.03999996  59.79000092
C    17.86999893  11.46000004  58.50000000
C    18.86000061  11.82000065  57.61000061
C    20.22999954  11.92999935  57.95000076
C    21.15999985  12.43999958  57.01000214
C    22.46000099  12.61000061  57.43000031
C    22.84000015  12.46999931  58.79000092
C    21.97999954  11.87999916  59.68000031
C    20.65000153  11.59000015  59.29000092
C    16.40999985  11.42000008  58.39000320
C    15.80000019  10.77000046  59.48999786
C    14.45000076  10.44999981  59.56999969
C    24.27000046  12.79000092  59.19000244
H    24.62524033  12.03689289  59.89337540
H    19.76000023  10.88999939  61.22000122
H    18.59000015  12.27000046  56.65999985
H    20.86000061  12.61000061  55.97000122
H    23.22999954  12.94000053  56.75000000
H    22.21999931  11.68000031  60.72999954
H    13.94999981  10.01999950  60.43000031
H    24.27999878  13.78999901  59.64000320
H    24.94999886  12.86999893  58.33000183
