96

S    16.36000061  15.76000023  64.11000061
C    19.06999969  15.59999943  63.31999969
C    17.72999954  15.39999962  63.04999924
C    17.35000038  14.94999981  61.75000000
C    18.31999969  14.89999962  60.77000046
C    19.70000076  14.98999977  61.07999802
C    20.72000122  15.06999969  60.08999634
C    22.04000092  15.29000092  60.40000153
C    22.43000031  15.64000034  61.72000122
C    21.47000122  15.72000027  62.70999908
C    20.13000107  15.36999893  62.41000366
C    15.90000057  14.80999947  61.65000153
C    15.24000072  15.27999973  62.81999969
C    13.85000038  15.29999924  62.84000015
C    23.87000084  15.95000076  62.04999924
H    24.28214645  15.33888435  62.85297775
H    19.40000153  16.18000031  64.18000031
H    18.09999847  14.88000011  59.71000290
H    20.40999985  15.01000023  59.05000305
H    22.77000046  15.44000053  59.61999893
H    21.71999931  16.10999870  63.68999863
H    13.34000015  15.65000057  63.73000336
H    24.54000092  15.84000015  61.18999863
H    23.95999908  16.97000122  62.45999908
S    12.75000000  14.19999981  59.23999786
C    10.06000042  13.96999931  59.89999771
C    11.31999969  14.37999916  60.27999878
C    11.65999985  14.77000046  61.60999680
C    10.65999985  14.80000019  62.56999969
C     9.31999969  14.53999996  62.18999863
C     8.27999973  14.45000076  63.15999985
C     6.98999977  14.18000031  62.77999878
C     6.70000029  13.73000050  61.46999741
C     7.71000004  13.66000080  60.52999878
C     9.02000046  14.09999943  60.86000061
C    13.10999966  14.78999996  61.77000046
C    13.83999920  14.34999943  60.63000107
C    15.21999931  14.37000084  60.51000214
C     5.23000002  13.67000008  61.11999893
H     4.88063145  14.33308792  60.32857132
H     9.85000038  13.53999996  58.93000031
H    10.97000027  14.85999966  63.60000229
H     8.50000000  14.73999977  64.19000244
H     6.14000034  14.37000084  63.43999863
H     7.40999985  13.42000008  59.51000214
H    15.69000053  13.96000004  59.61999893
H     4.75000000  14.04000092  62.02999878
H     5.00000000  12.61999989  60.90999985
S    12.68000031  11.84000015  56.18999863
C    10.01000023  11.30000019  56.90999985
C    11.35000038  11.09000015  57.11000061
C    11.77000046  10.40999985  58.29000092
C    10.77000046  10.01000023  59.15999985
C     9.36999989  10.11000061  58.97999573
C     8.39999962   9.81000042  59.98000336
C     7.07999992   9.98000050  59.61000061
C     6.71000004  10.52999973  58.34999847
C     7.63000011  10.90999985  57.39999771
C     9.00000000  10.77000046  57.76000214
C    13.20000076  10.57000065  58.52000427
C    13.78999901  11.31999969  57.47000122
C    15.07999992  11.82999992  57.60000229
C     5.26000023  10.85000038  58.09999847
H     4.95521832  10.35384369  57.17856598
H     9.78999996  11.94000053  56.06999969
H    11.21999931   9.57999992  60.06000137
H     8.71999931   9.48000050  60.96000290
H     6.35999966   9.63000011  60.34000015
H     7.42999983  11.31000042  56.40999603
H    15.46000004  12.50000000  56.83000183
H     4.76000023  10.52000046  59.02000046
H     5.05999994  11.92000008  58.02000046
S    16.48999977  10.03999901  60.91999817
C    19.11999893  10.78999996  60.31000137
C    17.78000069  10.85999966  60.01999664
C    17.29999924  11.52999973  58.85000229
C    18.19000053  12.10999966  57.95999908
C    19.57999992  11.97999954  58.20999908
C    20.59999847  12.51999950  57.37999725
C    21.93000031  12.36999989  57.67000198
C    22.37999916  11.71000004  58.85000229
C    21.44000053  11.21000099  59.72000122
C    20.06000137  11.36000061  59.41999817
C    15.85999966  11.39999962  58.68000031
C    15.31000042  10.59000015  59.69999695
C    13.97999954  10.21000004  59.61999893
C    23.85000038  11.38000011  59.01000214
H    24.19835854  11.62882614  60.01241684
H    19.38999939  10.21000004  61.18999863
H    17.84000015  12.57999992  57.04999924
H    20.36000061  12.94000053  56.39999771
H    22.75000000  12.51000023  56.97000122
H    21.68000031  10.57999992  60.58000183
H    13.50000000   9.63000011  60.40999985
H    24.40000153  11.92000008  58.23999786
H    23.90999985  10.31999969  58.75999832
