96

S    15.82999992  15.10000038  64.59999847
C    18.54999924  15.44000053  63.85000229
C    17.27000046  15.01000023  63.56999969
C    16.94000053  14.47000027  62.29000092
C    17.94999886  14.44000053  61.33999634
C    19.29000092  14.81999969  61.56999969
C    20.30999947  14.78999996  60.58000183
C    21.50000000  15.44999981  60.76000214
C    21.80000114  15.85999966  62.09000015
C    20.88999939  15.81999969  63.13000107
C    19.57999992  15.31000042  62.88999939
C    15.51000023  14.26000023  62.09999847
C    14.78000069  14.57999992  63.27000046
C    13.38999939  14.61999989  63.34000015
C    23.16999817  16.36000061  62.45999908
H    23.72169304  15.63148117  63.05413055
H    18.81000137  15.77000046  64.86000061
H    17.56999969  14.04999924  60.40000153
H    20.09000015  14.25000000  59.65999985
H    22.14999962  15.59000015  59.91000366
H    21.15999985  16.34000015  64.04000092
H    12.84999943  14.93999958  64.22999573
H    23.75999832  16.65999985  61.59000015
H    23.02000046  17.27000046  63.04999924
S    12.28999996  13.93000031  59.59000015
C     9.57999992  13.78999901  60.20999908
C    10.85999966  14.06999969  60.63000107
C    11.28999901  14.27999973  61.97999954
C    10.21000004  14.51000023  62.81999969
C     8.85000038  14.42999935  62.44999695
C     7.76999998  14.68999958  63.34999847
C     6.44000006  14.44000053  63.08000183
C     6.10000038  14.19999981  61.72000122
C     7.11999989  13.96000004  60.83000183
C     8.51000023  13.97999954  61.12999725
C    12.72999954  14.23999977  62.15999985
C    13.42000008  13.99000072  60.94999695
C    14.80999947  13.96000004  60.91999817
C     4.67000008  14.04999924  61.27999878
H     4.41348457  14.31364059  60.25394058
H     9.28999996  13.40000057  59.23999786
H    10.51000023  14.80999947  63.81999969
H     8.07999992  14.96000099  64.34999847
H     5.69999981  14.47999954  63.87000275
H     6.88000011  13.53000069  59.86000061
H    15.34000015  13.81999969  59.98000336
H     4.07999992  14.73000050  61.90999985
H     4.38000011  13.02999973  61.59000015
S    12.55000019  11.57999992  56.19999695
C     9.82999992  11.49000072  56.97000122
C    11.16000080  11.31000042  57.27000427
C    11.68000031  10.85999966  58.53000259
C    10.72000027  10.46000004  59.45000076
C     9.34000015  10.62000084  59.18000031
C     8.32999992  10.13000011  60.06999969
C     6.98000002  10.29999924  59.91000366
C     6.52999973  10.88000107  58.68999863
C     7.44999981  11.28000069  57.76000214
C     8.85999966  11.18000031  57.95000076
C    13.12000084  10.86999989  58.68999863
C    13.73000050  11.35000038  57.50000000
C    15.10000038  11.56999969  57.37999725
C     5.07999992  10.69000053  58.31999969
H     4.83845806  11.00258446  57.30410004
H     9.57999992  11.94000053  56.00999832
H    10.95000076  10.01000023  60.40999985
H     8.71000004   9.68999958  60.97999954
H     6.23000050   9.90999985  60.59999847
H     7.17999983  11.51999950  56.72999954
H    15.36999893  11.95000076  56.39999771
H     4.90999985   9.61000061  58.39000320
H     4.42999983  11.21999931  59.02999878
S    16.54999924  10.44000053  60.90999985
C    19.20999908  10.85000038  60.05000305
C    17.86000061  10.92000008  59.80999756
C    17.38000107  11.25000000  58.50000000
C    18.27000046  11.56999969  57.50000000
C    19.64999962  11.71000004  57.77999878
C    20.56999969  12.35999966  56.90000153
C    21.84999847  12.65999985  57.30999756
C    22.32999992  12.28000069  58.59000397
C    21.47999954  11.61000061  59.43999863
C    20.13000107  11.32999992  59.08000183
C    15.93000031  11.13000011  58.40999985
C    15.34999943  10.70000076  59.62999725
C    13.96999931  10.52000046  59.73999786
C    23.74000168  12.67000008  58.95999908
H    24.11032486  12.09315014  59.80746841
H    19.54000092  10.34999943  60.96000290
H    18.00000000  11.82999992  56.47999573
H    20.17000008  12.82999992  56.00000000
H    22.53999901  13.21000004  56.68000031
H    21.73000145  11.35000038  60.45999908
H    13.61999989  10.11000061  60.68000031
H    23.90000153  13.71999931  59.26000214
H    24.40999985  12.50000000  58.11000061
