96

S    15.71000004  14.88000011  64.65000153
C    18.45000076  15.01000023  63.88999939
C    17.12000084  14.78999996  63.56999969
C    16.72000122  14.47000027  62.23999786
C    17.71999931  14.42000008  61.27999878
C    19.10000038  14.60000038  61.56000137
C    20.15000153  14.72000027  60.61000061
C    21.42999840  15.03000069  61.00000000
C    21.75000000  15.38000011  62.34000397
C    20.76000023  15.39000034  63.29000092
C    19.45000076  15.01000023  62.88999939
C    15.27999973  14.32999992  62.08000183
C    14.60999966  14.72000027  63.27000046
C    13.22000027  14.78000069  63.25000000
C    23.15000153  15.85999966  62.63000107
H    23.66233063  15.14843178  63.27752686
H    18.71000099  15.29000092  64.91000366
H    17.42000008  14.21000004  60.26000214
H    19.84000015  14.63000107  59.56999969
H    22.14999962  15.22999954  60.20999908
H    20.88000107  15.86999989  64.26000214
H    12.81000042  14.88999939  64.25000000
H    23.69999886  16.18999863  61.73999786
H    22.93999863  16.81999969  63.11999893
S    12.10999966  13.75000000  59.61000061
C     9.40999985  13.81999969  60.25000000
C    10.70000076  14.15999985  60.59999847
C    11.02000046  14.55000019  61.93999863
C    10.01000023  14.84000015  62.83000183
C     8.64000034  14.57999992  62.56000137
C     7.57999992  14.68000031  63.50000000
C     6.28999996  14.35999966  63.11999893
C     6.00000000  13.93000031  61.79999924
C     7.05999947  13.73999977  60.93999863
C     8.42000008  14.06000042  61.23000336
C    12.46999931  14.55999947  62.09000015
C    13.20000076  14.27000046  60.90999985
C    14.56999969  14.09999943  60.89000320
C     4.56999969  13.60999966  61.44000244
H     4.28624344  14.14204407  60.53197479
H     9.10000038  13.45999908  59.27000046
H    10.36000061  15.05000019  63.83999634
H     7.77999973  15.11000061  64.47000122
H     5.51999998  14.50000000  63.87000275
H     6.91999960  13.55999947  59.87999725
H    15.01999950  13.94999981  59.91000366
H     3.88000011  13.88000011  62.25000000
H     4.39000034  12.53999901  61.29000092
S    12.10999966  11.90999985  56.11999893
C     9.44999981  11.31999969  56.79999924
C    10.78999996  11.23999977  57.09000015
C    11.25000000  10.55999947  58.27000046
C    10.29999924  10.01000023  59.12000275
C     8.93000031  10.10000038  58.81000137
C     7.99000025   9.70000076  59.79999924
C     6.63999987   9.94000053  59.62999725
C     6.14000034  10.65999985  58.52000427
C     7.07000017  11.21000099  57.67000198
C     8.43999958  10.80999947  57.65999603
C    12.68000031  10.77000046  58.43999863
C    13.26000023  11.56999969  57.43000031
C    14.63000107  11.79999924  57.36000061
C     4.67000008  10.90000057  58.27000046
H     4.36555958  10.52475929  57.29295731
H     9.13999939  11.85999966  55.90999985
H    10.53999996   9.76000023  60.14999771
H     8.42000008   9.38000011  60.75000000
H     5.92999983   9.59999943  60.38000107
H     6.71000004  12.01000023  57.02999878
H    15.07999992  12.41000080  56.59000015
H     4.15000010  10.31999969  59.05000305
H     4.44999981  11.97000027  58.31999969
S    15.90000057  10.21999931  60.84999847
C    18.52000046  10.92000008  60.34999847
C    17.20999908  10.95000076  59.91000366
C    16.86000061  11.64000034  58.70999908
C    17.84000015  12.28000069  57.97000122
C    19.18000031  12.35000038  58.41999817
C    20.22000122  12.84000015  57.57999802
C    21.53000069  12.50000000  57.84999847
C    21.90000153  11.84999943  59.06000137
C    20.88999939  11.40999985  59.86999893
C    19.50000000  11.64000034  59.62999725
C    15.43000031  11.46999931  58.44999695
C    14.84000015  10.77000046  59.52999878
C    13.50999928  10.34000015  59.47999954
C    23.29999924  11.32999992  59.31000137
H    23.66998291  11.70709801  60.26342010
H    18.92000008  10.14000034  60.98999786
H    17.57999992  12.64999962  56.97999954
H    19.93000031  13.28999996  56.63999939
H    22.27999878  12.55000019  57.06999969
H    21.02000046  10.65000057  60.63999939
H    13.12999916   9.65999985  60.24000168
H    23.90999985  11.71000004  58.47999954
H    23.22000122  10.24000072  59.27000046
