96

S    15.80000019  15.44000053  64.52999878
C    18.48999977  15.24000072  63.89999771
C    17.19000053  14.98999977  63.52000427
C    16.79999924  14.47000027  62.25000000
C    17.82999992  14.00000000  61.44000244
C    19.18000031  14.29999924  61.70999908
C    20.17999840  14.26000023  60.70000076
C    21.48999977  14.63000107  60.93000031
C    21.88999939  15.08999920  62.22000122
C    20.86000061  15.36999893  63.08000183
C    19.50000000  14.96000099  62.95000076
C    15.34999943  14.52000046  62.09999847
C    14.68000031  15.14999962  63.18000031
C    13.30999947  15.39000034  63.18000031
C    23.29000092  15.47999954  62.63000107
H    23.73177528  14.90284061  63.44229507
H    18.70000076  15.90000057  64.73000336
H    17.56999969  13.53000069  60.50000000
H    19.82999992  13.96999931  59.71000290
H    22.14999962  14.47000027  60.08999634
H    21.05999947  15.90999985  64.00000000
H    12.79000092  15.75000000  64.05999756
H    23.95000076  15.29999924  61.77000046
H    23.22000122  16.54999924  62.88999939
S    12.22000027  14.19999981  59.52999878
C     9.50000000  14.19999981  60.26000214
C    10.81999969  14.42999935  60.59000015
C    11.13999939  14.86999989  61.91999817
C    10.14000034  15.13000011  62.84000015
C     8.78999996  14.82999992  62.55000305
C     7.75000000  14.91000080  63.52000427
C     6.46000004  14.70999908  63.09999847
C     6.12999964  14.13000011  61.84000015
C     7.13999987  14.01000023  60.90999985
C     8.48999977  14.32000065  61.24000168
C    12.57999992  14.98999977  62.04999924
C    13.27999973  14.46000004  60.93000031
C    14.65000057  14.22000027  60.93000031
C     4.67999983  13.93000031  61.46999741
H     4.35298491  14.37786770  60.53160858
H     9.26999950  13.66000080  59.34000015
H    10.50000000  15.47000027  63.81000137
H     8.02999973  15.36000061  64.47000122
H     5.60999966  14.96000099  63.74000168
H     6.96000004  13.78999901  59.86000061
H    15.19000053  13.75000000  60.12000275
H     3.98000002  14.14000034  62.29000092
H     4.48000002  12.84999943  61.43000031
S    12.92000008  12.02000046  56.45000076
C    10.15999985  11.76000023  56.97000122
C    11.46000004  11.59999943  57.36999893
C    11.82000065  10.86999989  58.54999924
C    10.81999969  10.50000000  59.43000031
C     9.46000004  10.67000008  59.06000137
C     8.40999985  10.50000000  60.00999832
C     7.09999990  10.72999954  59.68000031
C     6.80999994  11.31000042  58.41999817
C     7.76000023  11.44999981  57.43999863
C     9.11999989  11.21999931  57.77999878
C    13.25000000  10.78999996  58.80000305
C    13.96999931  11.38000011  57.72999573
C    15.34999943  11.56000042  57.74000168
C     5.36999989  11.56000042  58.02999878
H     5.05133915  10.93684006  57.19439697
H     9.81000042  12.23000050  56.04999924
H    11.05000019  10.03999901  60.38999939
H     8.73999977  10.07999992  60.96000290
H     6.34999990  10.43000031  60.40999985
H     7.55000019  11.95000076  56.50000000
H    15.90000057  11.65999985  56.81000137
H     4.73000002  11.51000023  58.92000198
H     5.38000011  12.60000038  57.67000198
S    16.45000076   9.96000004  61.18999863
C    19.19000053  10.50000000  60.68999863
C    17.86999893  10.52000046  60.30000305
C    17.46000099  11.07999992  59.03999710
C    18.44000053  11.56000042  58.18999863
C    19.80999947  11.56000042  58.54000092
C    20.76999855  12.28000069  57.77000046
C    22.01999855  12.43000031  58.31999969
C    22.46000099  11.73999977  59.47999954
C    21.54999924  11.03000069  60.22999573
C    20.19000053  10.98000050  59.79999924
C    16.02000046  11.21000099  58.92000198
C    15.31000042  10.57999992  59.97000122
C    13.93000031  10.43000031  59.97000122
C    23.84000015  12.02000046  60.04000092
H    24.48978806  11.20598125  59.71867752
H    19.47000122  10.21000004  61.70000076
H    18.15000153  12.02999973  57.25000000
H    20.48999977  12.76999950  56.84999847
H    22.70000076  13.09000015  57.78999710
H    21.84999847  10.77000046  61.24000168
H    13.32999992  10.14000034  60.83000183
H    23.92000008  11.97000027  61.13999939
H    24.23999977  12.97999954  59.69999695
