96

S    15.54999924  14.51000023  64.65000153
C    18.20000076  15.03999901  64.06999969
C    17.05000114  14.37999916  63.69999695
C    16.77999878  14.01000023  62.35000229
C    17.79999924  14.15999985  61.43000031
C    19.09000015  14.59000015  61.84000015
C    20.17000008  14.55999947  60.90999985
C    21.40999985  15.01000023  61.29000092
C    21.55999947  15.60999966  62.56999969
C    20.55999947  15.65000057  63.50999832
C    19.29999924  15.06999969  63.16999817
C    15.36000061  13.94999981  62.02999878
C    14.57999992  14.23999977  63.18000031
C    13.23999977  14.57999992  63.13000107
C    22.95000076  16.03999901  62.98999786
H    23.31319427  15.29224682  63.69501877
H    18.34000015  15.54999924  65.01999664
H    17.48999977  13.88000011  60.41999817
H    19.90999985  14.28999996  59.87999725
H    22.27999878  14.96000099  60.65999985
H    20.78000069  15.98000050  64.52000427
H    12.72999954  14.93999958  64.01999664
H    23.54000092  16.13999939  62.06999969
H    22.88999939  17.04000092  63.44999695
S    12.15999985  13.47000027  59.52999878
C     9.39999962  13.76000023  59.97000122
C    10.69000053  13.92000008  60.40999985
C    11.05000019  14.32000065  61.73999786
C    10.01999950  14.47999954  62.64999771
C     8.67999935  14.19999981  62.27000427
C     7.63000011  14.34000015  63.22999954
C     6.34000015  13.96000004  62.94000244
C     5.98999977  13.53999996  61.63000107
C     6.97000027  13.60999966  60.66999817
C     8.34000015  13.86999989  60.90999985
C    12.48999977  14.34000015  61.97000122
C    13.25000000  13.89999962  60.86000061
C    14.63999939  13.78000069  60.84999847
C     4.55000019  13.25000000  61.29000092
H     4.13658524  13.88437843  60.50593948
H     9.17000008  13.38000107  58.97999573
H    10.21000004  14.93000031  63.61000061
H     7.82999992  14.73000050  64.22999573
H     5.55999994  13.96000004  63.69999695
H     6.58999968  13.32999992  59.68999863
H    15.24000072  13.53000069  59.98000336
H     3.88000011  13.22000027  62.15999985
H     4.56999969  12.22000027  60.90000153
S    16.31000137  15.17000008  58.06999969
C    18.96999931  15.77000046  57.28000259
C    17.70000076  15.34000015  56.97999954
C    17.40999985  15.10000038  55.59999847
C    18.36000061  15.21000004  54.59999847
C    19.71999931  15.34000015  54.97000122
C    20.82999992  15.32999992  54.08000183
C    22.10000038  15.70000076  54.47999954
C    22.32999992  16.28000069  55.75000000
C    21.31999969  16.21999931  56.66999817
C    20.00999832  15.78999996  56.31000137
C    16.01000023  14.73999977  55.45000076
C    15.27999973  14.85999966  56.65999985
C    13.89000034  14.91000080  56.70999908
C    23.71999931  16.65999985  56.22000122
H    24.17653465  16.13926697  57.06173325
H    19.27999878  15.86999989  58.30999756
H    18.22999954  14.80999947  53.60000229
H    20.69999886  14.85000038  53.11000061
H    22.93999863  15.53999996  53.81000137
H    21.42999840  16.40999985  57.74000168
H    13.38999939  15.14999962  57.63999939
H    24.34999847  16.72000122  55.33000183
H    23.57999992  17.73999977  56.37000275
S    12.89000034  14.44000053  52.90999985
C    10.18000031  14.25000000  53.47999954
C    11.44000053  14.55999947  53.93000031
C    11.72000027  15.01000023  55.26000214
C    10.65999985  15.19999981  56.12999725
C     9.34000015  14.84000015  55.76000214
C     8.23999977  14.91000080  56.65999985
C     6.94000006  14.80999947  56.23000336
C     6.76999998  14.19000053  54.95999908
C     7.82000017  13.86999989  54.13000107
C     9.13999939  14.27000046  54.45000076
C    13.14000034  14.89999962  55.52000046
C    13.90999985  14.73000050  54.34000015
C    15.29000092  14.60999966  54.26000214
C     5.38000011  13.81000042  54.51000214
H     5.03148794  14.42167473  53.67784119
H     9.96000004  13.89000034  52.48000336
H    10.78999996  15.47000027  57.18000031
H     8.53999996  14.98000050  57.70000076
H     6.15999985  14.81999969  56.98999786
H     7.53999996  13.34000015  53.22000122
H    15.81999969  14.70999908  53.31999969
H     4.67000008  13.78999901  55.34000015
H     5.27999973  12.82999992  54.02999878
