96

S    15.72999954  15.21999931  64.31999969
C    18.44000053  15.44999981  63.64999771
C    17.19000053  14.94999981  63.36000061
C    16.81999969  14.23999977  62.16999817
C    17.85000038  14.02999973  61.26999664
C    19.18000031  14.42999935  61.53999710
C    20.20000076  14.19999981  60.58000183
C    21.48999977  14.61999989  60.81999969
C    21.81999969  15.18000031  62.08000183
C    20.84000015  15.50000000  62.98999786
C    19.47999954  15.18000031  62.72999573
C    15.38000011  14.11000061  62.00000000
C    14.63000107  14.51000023  63.13000107
C    13.23999977  14.47999954  63.18999863
C    23.29000092  15.34000015  62.42000198
H    23.68176460  14.52798080  63.03257370
H    18.44000053  15.95999908  64.61000061
H    17.59000015  13.57999992  60.31999969
H    19.95000076  13.71000099  59.64000320
H    22.14999962  14.65000057  59.95999908
H    21.15999985  16.00000000  63.89999771
H    12.79999924  15.03999901  64.01000214
H    23.87000084  15.43000031  61.49000168
H    23.42000008  16.31999969  62.90000153
S    12.15999985  13.47000027  59.52000046
C     9.39000034  13.53999996  60.18000031
C    10.71000004  13.66000080  60.52999878
C    11.09000015  14.04999924  61.86000061
C    10.13000011  14.42999935  62.77000046
C     8.76999950  14.28999996  62.43000031
C     7.75000000  14.48999977  63.40000153
C     6.46000004  14.11000061  63.09999847
C     6.05999994  13.86999989  61.76000214
C     7.00000000  13.71999931  60.76000214
C     8.36999989  13.83999920  61.11999893
C    12.53999901  14.01999950  62.06999969
C    13.26000023  13.75000000  60.87999725
C    14.65000057  13.71999931  60.86000061
C     4.63000011  13.56999969  61.38000107
H     4.35264254  14.08915520  60.46258545
H     9.11999989  13.35000038  59.13999939
H    10.42000008  14.93000031  63.68999863
H     7.99000025  14.85000038  64.40000153
H     5.71000004  13.97999954  63.88000107
H     6.76000023  13.52000046  59.72000122
H    15.19999981  13.64999962  59.93000031
H     3.97000027  13.75000000  62.23999786
H     4.63999987  12.51999950  61.05999756
S    12.76000023  11.00000000  56.26999664
C    10.13000011  10.92000008  57.06999969
C    11.44000053  10.64000034  57.39999771
C    11.85999966  10.03000069  58.61999893
C    10.93000031   9.67000008  59.58000183
C     9.55999947   9.96000004  59.36000061
C     8.52000046   9.59000015  60.26000214
C     7.23000002  10.01999950  60.02999878
C     6.94000006  10.73999977  58.85000229
C     7.88999987  11.00999928  57.88999939
C     9.22999954  10.59999943  58.11999893
C    13.30000019  10.17000008  58.75999832
C    13.90999985  10.72999954  57.60000229
C    15.22999954  11.16000080  57.57999802
C     5.46999979  10.92000008  58.53000259
H     5.11382961  10.31450939  57.69655991
H     9.77999973  11.46999931  56.19999695
H    11.14999962   9.07999992  60.47000122
H     8.64999962   8.97000027  61.13999939
H     6.38999987   9.73999977  60.65000153
H     7.57999992  11.33999920  56.90000153
H    15.67999935  11.49000072  56.65999985
H     4.88000011  10.85000038  59.45000076
H     5.38999987  11.97999954  58.23999786
S    16.63999939  10.06000042  61.17000198
C    19.29999924  10.51000023  60.45000076
C    17.97000122  10.50000000  60.08999634
C    17.46000099  10.98999977  58.83999634
C    18.40999985  11.39999962  57.91999817
C    19.79999924  11.38000011  58.18999863
C    20.79999924  11.78999996  57.25999832
C    22.10000038  11.98999977  57.68000031
C    22.53000069  11.61999893  58.97999573
C    21.59000015  11.18000031  59.87999725
C    20.23999977  10.97000027  59.48999786
C    16.01000023  10.95000076  58.73000336
C    15.44999981  10.34999943  59.87999725
C    14.09999943  10.03999901  59.89999771
C    24.00000000  11.77999973  59.27999878
H    24.27683830  11.23341846  60.18150330
H    19.57999992  10.31999969  61.47999573
H    18.01000023  11.54999924  56.91999817
H    20.51000214  11.92999935  56.23000336
H    22.85000038  12.43999958  57.04000092
H    21.84999847  10.98999977  60.91999817
H    13.68999958   9.64999962  60.84000015
H    24.04000092  12.86000061  59.51000214
H    24.56000137  11.54000092  58.36999893
