96

S    15.62000084  15.88999939  64.36999512
C    18.32999992  15.67999935  63.73000336
C    17.02000046  15.36000061  63.43000031
C    16.64999962  14.93000031  62.11000061
C    17.61999893  14.77000046  61.13999939
C    18.97999954  14.98000050  61.49000168
C    20.00000000  14.93999958  60.48999786
C    21.28999901  15.26000023  60.80999756
C    21.63999939  15.77000046  62.09000015
C    20.65999985  16.03000069  63.02000046
C    19.32999992  15.59000015  62.74000168
C    15.21000004  15.00000000  61.90000153
C    14.52000046  15.48999977  63.02999878
C    13.12999916  15.48999977  63.13000107
C    23.09000015  16.14999962  62.29999924
H    23.51707649  15.68733311  63.18974304
H    18.54999924  16.23999977  64.63999939
H    17.39999962  14.29999924  60.19000244
H    19.70999908  14.80999947  59.45000076
H    22.11000061  15.14000034  60.11000061
H    20.86999893  16.60000038  63.92000198
H    12.69000053  15.72999954  64.08999634
H    23.68999863  15.86999989  61.42000198
H    23.12000084  17.25000000  62.37999725
S    12.09000015  14.18000031  59.52999878
C     9.34000015  14.32000065  60.20000076
C    10.65999985  14.61999989  60.48999786
C    10.97000027  15.06999969  61.81000137
C     9.98000050  15.27999973  62.76000214
C     8.63000011  14.94999981  62.48000336
C     7.59999990  15.11000061  63.44999695
C     6.30000019  14.75999928  63.15999985
C     6.00000000  14.17000008  61.90999985
C     6.98999977  13.99000072  60.97000122
C     8.31999969  14.44000053  61.17000198
C    12.41000080  15.14999962  61.97999954
C    13.14000034  14.77000046  60.83000183
C    14.52999973  14.70000076  60.70999908
C     4.63000011  13.71000099  61.45000076
H     4.32508945  14.17800331  60.51399612
H     9.06999969  13.94000053  59.22000122
H    10.21999931  15.69000053  63.73000336
H     7.76999998  15.60999966  64.40000153
H     5.53999996  14.98000050  63.89999771
H     6.86999989  13.43000031  60.04000092
H    15.06999969  14.47000027  59.79999924
H     3.94000006  14.07999992  62.22000122
H     4.57999992  12.61999989  61.36000061
S    16.18000031  16.02000046  57.78999710
C    18.89999962  16.18000031  57.15999985
C    17.61999893  15.84000015  56.77000046
C    17.22999954  15.46000004  55.44000244
C    18.25000000  15.31999969  54.52000046
C    19.59000015  15.54999924  54.88999939
C    20.59999847  15.36000061  53.89999771
C    21.90000153  15.64000034  54.26000214
C    22.23999977  16.31999969  55.45999908
C    21.25999832  16.52000046  56.39999771
C    19.93000031  16.04999924  56.19999695
C    15.80000019  15.36999893  55.21999741
C    15.10000038  15.65999985  56.42000198
C    13.71000099  15.60999966  56.47999573
C    23.65999985  16.65999985  55.86000061
H    24.06635666  16.00412560  56.62993622
H    19.02000046  16.73999977  58.09000015
H    17.90999985  15.05000019  53.52000427
H    20.39999962  15.08999920  52.87000275
H    22.72999954  15.52999973  53.55999756
H    21.28000069  17.09000015  57.31999969
H    13.17000008  15.75000000  57.41000366
H    24.23000145  16.55999947  54.93000031
H    23.68999863  17.70000076  56.22000122
S    12.56999969  14.78999996  52.74000168
C     9.89999962  14.55999947  53.54000092
C    11.19999981  14.84000015  53.87000275
C    11.56999969  15.10000038  55.22999573
C    10.62999916  15.19999981  56.24000168
C     9.30000019  14.84000015  55.90999985
C     8.19999981  15.03000069  56.79999924
C     6.90999985  14.65000057  56.53999710
C     6.57000017  14.29999924  55.20999908
C     7.53999996  14.37000084  54.23999786
C     8.90999985  14.59000015  54.55999756
C    13.01000023  15.29999924  55.31000137
C    13.68999958  15.05000019  54.09000015
C    15.07999992  15.14000034  54.03999710
C     5.18000031  13.82999992  54.84000397
H     4.84552050  14.36374378  53.95043182
H     9.72000027  13.94999981  52.65999603
H    11.03999996  15.59000015  57.16999817
H     8.50000000  15.69000053  57.61000061
H     6.15999985  14.55000019  57.31999969
H     7.23000002  14.19000053  53.20999908
H    15.62000084  15.03000069  53.09999847
H     4.53999996  14.04000092  55.70999908
H     5.14999962  12.76000023  54.59999847
