96

S    15.76000023  14.93999958  64.40000153
C    18.40999985  15.19999981  63.53000259
C    17.10000038  14.88000011  63.25000000
C    16.64999962  14.57999992  61.93000031
C    17.59000015  14.32000065  60.94999695
C    18.95000076  14.65000057  61.16000366
C    19.97999954  14.34999943  60.22999573
C    21.30000114  14.50000000  60.59000015
C    21.70999908  15.17000008  61.77000046
C    20.69000053  15.50000000  62.63999939
C    19.36000061  15.03999901  62.48000336
C    15.19999981  14.51000023  61.84000015
C    14.57999992  14.65000057  63.11000061
C    13.19000053  14.65000057  63.18000031
C    23.15999985  15.48999977  62.08000183
H    23.50985527  14.94736576  62.95820999
H    18.72999954  15.62999916  64.47999573
H    17.30999947  13.78000069  60.04000092
H    19.72999954  13.93000031  59.26000214
H    22.04000092  14.01999950  59.95999908
H    20.90999985  16.17000008  63.47000122
H    12.67000008  14.96000099  64.08000183
H    23.90999985  15.21999931  61.32999802
H    23.26000023  16.55999947  62.27000427
S    11.82000065  14.29999924  59.48999786
C     9.11999989  14.01000023  60.28999710
C    10.43000031  14.32000065  60.59000015
C    10.90000057  14.47999954  61.93000031
C     9.96999931  14.47999954  62.95999908
C     8.57999992  14.44000053  62.65999603
C     7.64999962  14.32999992  63.73000336
C     6.32999992  14.01999950  63.54000092
C     5.93999958  13.68000031  62.21000290
C     6.81999969  13.63999939  61.16000366
C     8.15999985  14.06999969  61.33999634
C    12.34000015  14.47999954  62.06999969
C    12.98999977  14.37999916  60.81999969
C    14.37000084  14.48999977  60.70999908
C     4.48999977  13.36999989  61.90999985
H     4.29815435  13.58316135  60.85840225
H     8.71999931  13.50999928  59.40999985
H    10.21999931  14.42999935  64.01000214
H     8.05999947  14.45000076  64.73000336
H     5.64000034  14.13000011  64.36999512
H     6.54999971  13.23999977  60.18000031
H    14.91000080  14.59000015  59.77000427
H     3.88000011  14.04000092  62.51999664
H     4.15999985  12.35000038  62.12999725
S    16.34000015  15.65999985  57.75000000
C    19.01000023  15.44000053  56.97000122
C    17.68000031  15.31999969  56.63999939
C    17.34000015  15.13000011  55.26000214
C    18.32999992  15.06999969  54.29999924
C    19.70000076  15.14999962  54.62999725
C    20.76000023  15.13000011  53.68000031
C    22.06999969  15.34000015  54.03999710
C    22.40999985  15.54999924  55.40999985
C    21.42000008  15.59000015  56.36000061
C    20.05000114  15.36999893  56.00999832
C    15.88000107  15.11000061  55.18000031
C    15.22999954  15.46000004  56.38999939
C    13.85000038  15.59000015  56.47999573
C    23.84000015  15.88999939  55.77999878
H    24.23333740  15.18199348  56.50946045
H    19.40999985  15.72999954  57.94000244
H    18.09000015  14.88000011  53.26000214
H    20.55000114  14.91000080  52.63999939
H    22.72999954  15.62999916  53.22999954
H    21.68999863  15.88999939  57.36000061
H    13.43000031  15.73999977  57.47000122
H    24.47000122  15.90999985  54.87999725
H    23.69999886  16.93000031  56.11000061
S    12.64999962  14.48999977  52.83000183
C     9.98999977  14.34999943  53.68000031
C    11.28999901  14.75000000  53.93000031
C    11.63000011  15.21999931  55.24000168
C    10.67000008  15.44000053  56.20999908
C     9.31999969  15.11000061  55.93999863
C     8.26000023  15.26000023  56.88000107
C     6.91999960  15.06000042  56.66999817
C     6.61999989  14.48999977  55.40000153
C     7.60999966  14.23999977  54.47000122
C     8.97999954  14.59000015  54.64000320
C    13.07999992  15.29000092  55.34999847
C    13.73999977  14.98000050  54.13000107
C    15.13000011  14.89999962  54.02000046
C     5.23999977  13.93000031  55.11000061
H     4.80483866  14.55777359  54.33241653
H     9.70000076  13.81000042  52.78999710
H    10.95000076  15.71000004  57.22000122
H     8.64999962  15.59000015  57.84000015
H     6.19000006  15.11999989  57.47000122
H     7.36999989  13.75000000  53.53000259
H    15.52000046  14.65000057  53.04000092
H     4.55999994  13.81999969  55.96000290
H     5.36999989  12.94000053  54.65000153
