96

S    15.98999977  15.39999962  64.55000305
C    18.70000076  15.07999992  64.01000214
C    17.39999962  14.84000015  63.62999725
C    17.02000046  14.45000076  62.30999756
C    18.04000092  14.22999954  61.39999771
C    19.37999916  14.56999969  61.70999908
C    20.36999893  14.68000031  60.70000076
C    21.68999863  14.89999962  61.03000259
C    22.06000137  15.11000061  62.38999939
C    21.09000015  15.24000072  63.36000061
C    19.72999954  15.01000023  63.04000092
C    15.57000065  14.44000053  62.12999725
C    14.86999989  14.94999981  63.25000000
C    13.50000000  15.18000031  63.20000076
C    23.48999977  15.46000004  62.75000000
H    23.85888672  14.92085934  63.62255478
H    18.93000031  15.38000011  65.02999878
H    17.81999969  13.92000008  60.38000107
H    20.05000114  14.52000046  59.66999817
H    22.46000099  14.84000015  60.27000046
H    21.28999901  15.70000076  64.31999969
H    12.94999981  15.60999966  64.04000092
H    24.20000076  15.31999969  61.93000031
H    23.45999908  16.54000092  62.94000244
S    12.38999939  13.66000080  59.71000290
C     9.68999958  13.73999977  60.31000137
C    10.95999908  14.11000061  60.65999985
C    11.36000061  14.63000107  61.93000031
C    10.36999893  14.85000038  62.87000275
C     9.04999924  14.47999954  62.50999832
C     8.06999969  14.56999969  63.53000259
C     6.72999954  14.42000008  63.27000046
C     6.30000019  13.99000072  61.98999786
C     7.23999977  13.73000050  61.03000259
C     8.64000034  13.94999981  61.24000168
C    12.81000042  14.70999908  62.08000183
C    13.52000046  14.15999985  60.97999954
C    14.89999962  14.01999950  60.97999954
C     4.88000011  13.63000011  61.60999680
H     4.58748865  14.12227535  60.68252563
H     9.42000008  13.38000107  59.31999969
H    10.52999973  15.29000092  63.85000229
H     8.50000000  14.84000015  64.48999786
H     5.97000027  14.55999947  64.04000092
H     6.90000010  13.23999977  60.12000275
H    15.44999981  13.82999992  60.06000137
H     4.19999981  14.00000000  62.38999939
H     4.78999996  12.53999901  61.51000214
S    16.56999969  15.34000015  58.04999924
C    19.20999908  15.51000023  57.18000031
C    17.94000053  15.01999950  56.97999954
C    17.53000069  14.55999947  55.68000031
C    18.45000076  14.47000027  54.65000153
C    19.79999924  14.85999966  54.84000397
C    20.85000038  14.67000008  53.89999771
C    22.13999939  15.10000038  54.13999939
C    22.43999863  15.67999935  55.40999985
C    21.47999954  15.85000038  56.37000275
C    20.13999939  15.43000031  56.11999893
C    16.09000015  14.63000107  55.54000092
C    15.43000031  15.06000042  56.72000122
C    14.06000042  15.26999950  56.79999924
C    23.88000107  15.82999992  55.84000015
H    24.20102882  15.21648121  56.68180466
H    19.50000000  15.97000027  58.13000107
H    18.17000008  13.85000038  53.81000137
H    20.62000084  14.34000015  52.88999939
H    22.89999962  14.93999958  53.39000320
H    21.80999947  16.31999969  57.29000092
H    13.63000011  15.52000046  57.76000214
H    24.51999855  15.77000046  54.94999695
H    24.02000046  16.87999916  56.11999893
S    12.84000015  14.53999996  53.08000183
C    10.18000031  14.25000000  53.82999802
C    11.43000031  14.70999908  54.15000153
C    11.82999992  15.07999992  55.47000122
C    10.84000015  15.18000031  56.43000031
C     9.51000023  14.80999947  56.12999725
C     8.47999954  14.94999981  57.11000061
C     7.17999983  14.60999966  56.81999969
C     6.86999989  14.13000011  55.52000046
C     7.77999973  14.14000034  54.48999786
C     9.13999939  14.44000053  54.79000092
C    13.27999973  15.11999989  55.63999939
C    13.94999981  14.75999928  54.43999863
C    15.29000092  14.42000008  54.40000153
C     5.50000000  13.61999989  55.13000107
H     5.20964622  14.15113640  54.22352982
H     9.92999935  13.76000023  52.90000153
H    11.06999969  15.40999985  57.47000122
H     8.85000038  15.38000011  58.02999878
H     6.47000027  14.53999996  57.63000107
H     7.55000019  13.81999969  53.47999954
H    15.57999992  14.00000000  53.43999863
H     4.76000023  13.82999992  55.91999817
H     5.40000010  12.55000019  54.94999695
