96

S    16.62999916  14.85000038  64.15000153
C    19.34999847  15.15999985  63.47999954
C    18.05999947  14.81999969  63.11000061
C    17.69000053  14.47999954  61.77000046
C    18.65999985  14.39000034  60.79000092
C    19.98999977  14.70999908  61.14999771
C    20.98999977  14.63999939  60.13999939
C    22.26000023  15.10000038  60.40000153
C    22.57999802  15.57999992  61.70000076
C    21.68999863  15.54999924  62.74000168
C    20.34000015  15.17000008  62.47000122
C    16.25000000  14.44000053  61.52999878
C    15.55999947  14.67000008  62.74000168
C    14.18000031  14.68999958  62.84000015
C    23.98999977  15.84000015  62.18000031
H    24.33061790  15.15166950  62.95348740
H    19.68000031  15.55999947  64.43000031
H    18.27999878  14.00000000  59.85000229
H    20.71000099  14.30999947  59.13999939
H    23.12999916  14.91000080  59.79000092
H    22.04000092  15.57000065  63.76999664
H    13.71000099  14.77000046  63.81999969
H    24.70999908  15.88999939  61.36000061
H    23.97000122  16.87999916  62.54000092
S    13.00000000  13.83999920  59.12000275
C    10.31000042  13.88000011  59.86000061
C    11.61000061  14.21000004  60.15999603
C    12.00000000  14.57999992  61.47999573
C    11.09000015  14.70000076  62.50999832
C     9.72999954  14.61999989  62.14000320
C     8.71999931  14.70999908  63.13999939
C     7.37999964  14.55999947  62.84000015
C     7.00000000  14.44000053  61.47999573
C     7.94000053  14.28999996  60.47999954
C     9.32999992  14.29999924  60.79000092
C    13.45000076  14.55999947  61.65999985
C    14.09999943  14.34999943  60.40999985
C    15.47999954  14.19000053  60.38999939
C     5.51000023  14.32000065  61.22000122
H     5.16888285  14.41949272  60.18954468
H    10.01999950  13.73999977  58.81999969
H    11.43000031  14.68000031  63.54999924
H     9.13999939  14.92000008  64.12000275
H     6.67999983  14.65000057  63.66000366
H     7.57000017  13.97999954  59.51000214
H    15.98999977  13.96999931  59.45999908
H     5.17000008  15.18000031  61.79000092
H     5.00000000  13.47000027  61.68000031
S    16.64999962  15.54999924  57.55000305
C    19.30999947  15.70000076  56.77999878
C    18.04000092  15.27999973  56.47999573
C    17.64000130  15.03000069  55.13000107
C    18.61999893  15.06000042  54.15999985
C    19.93000031  15.52999973  54.41999817
C    20.93000031  15.53999996  53.40999985
C    22.25000000  15.73999977  53.75000000
C    22.60000038  16.06999969  55.08999634
C    21.63000107  16.27000046  56.04999924
C    20.29000092  15.88000107  55.77000046
C    16.18999863  15.00000000  54.97000122
C    15.53999996  15.31000042  56.18999863
C    14.17000008  15.53999996  56.27999878
C    24.04999924  16.28999901  55.43000031
H    24.36292076  15.74238396  56.31898880
H    19.54000092  15.92000008  57.81999969
H    18.48999977  14.50000000  53.23999786
H    20.63999939  15.31999969  52.38999939
H    22.95999908  15.64000034  52.95000076
H    21.90000153  16.43000031  57.09000015
H    13.73999977  15.86999989  57.22000122
H    24.63999939  15.98999977  54.54999924
H    24.41999817  17.30999947  55.59000015
S    12.90999985  14.78000069  52.58999634
C    10.25000000  14.51000023  53.40999985
C    11.54999924  14.81999969  53.74000168
C    11.90999985  15.22999954  55.06000137
C    10.88999939  15.39000034  55.97999954
C     9.55000019  15.03999901  55.70999908
C     8.50000000  15.10000038  56.66999817
C     7.22000027  14.84000015  56.25999832
C     6.86999989  14.42999935  54.93999863
C     7.86000013  14.40999985  53.99000168
C     9.21000004  14.70999908  54.34999847
C    13.35999966  15.31000042  55.15999603
C    14.02999973  15.11000061  53.92000198
C    15.40999985  15.01999950  53.80000305
C     5.50000000  13.93000031  54.52000046
H     5.03716564  14.62781334  53.82218933
H    10.08999920  14.19999981  52.37999725
H    11.21999931  15.57999992  57.00000000
H     8.71999931  15.34000015  57.70999908
H     6.46000004  14.77000046  57.04000092
H     7.64999962  14.00000000  53.01000214
H    15.81999969  15.11999989  52.80000305
H     4.86999989  13.71000099  55.38999939
H     5.51999998  12.94999981  54.03999710
