96

S    16.17000008  14.85999966  64.59000397
C    18.89999962  15.06000042  63.90999603
C    17.60000038  14.82999992  63.53000259
C    17.20999908  14.70999908  62.15999985
C    18.20999908  14.56999969  61.20999908
C    19.56999969  14.80000019  61.53999710
C    20.63999939  14.56999969  60.63000107
C    21.94999886  14.81999969  60.96000290
C    22.30999947  15.10000038  62.29999924
C    21.30000114  15.08999920  63.22999954
C    19.90999985  15.03000069  62.90999985
C    15.77000046  14.55999947  62.01000214
C    15.05000019  14.70999908  63.22000122
C    13.66000080  14.73999977  63.25000000
C    23.74000168  15.36999893  62.74000168
H    24.11912346  14.63321304  63.44817734
H    19.13999939  15.15999985  64.97000122
H    17.98999977  14.28999996  60.19000244
H    20.36000061  14.27999973  59.61999893
H    22.75000000  14.68000031  60.24000168
H    21.54000092  15.07999992  64.29000092
H    13.07999992  14.96999931  64.13999939
H    24.40000153  15.36000061  61.86999893
H    23.67000198  16.39999962  63.13000107
S    12.63000011  13.85000038  59.50000000
C     9.88000011  13.68000031  60.13999939
C    11.18000031  13.94000053  60.51000214
C    11.50000000  14.27000046  61.86000061
C    10.52000046  14.40000057  62.83000183
C     9.17000008  14.19000053  62.44999695
C     8.09000015  14.35999966  63.36999893
C     6.78999996  14.19000053  62.97000122
C     6.51000023  13.67000008  61.66999817
C     7.50999975  13.47000027  60.73999786
C     8.85999966  13.71999931  61.12999725
C    12.93000031  14.42999935  62.09999847
C    13.66000080  14.23999977  60.89000320
C    15.05000019  14.26000023  60.84999847
C     5.05000019  13.43000031  61.36000061
H     4.72944641  13.67932034  60.34847641
H     9.52999973  13.22000027  59.22000122
H    10.62000084  14.65999985  63.87000275
H     8.15999985  14.75999928  64.38000488
H     5.88999987  14.37999916  63.54000092
H     7.36999989  13.10999966  59.72999954
H    15.50000000  14.19000053  59.86000061
H     4.38000011  13.88000011  62.09999847
H     4.92999983  12.35000038  61.49000168
S    16.87000084  15.72999954  57.93000031
C    19.55000114  15.80999947  57.22000122
C    18.25000000  15.59000015  56.81999969
C    17.89999962  15.27999973  55.47000122
C    18.89000130  15.01000023  54.54000092
C    20.22999954  15.29000092  54.89999771
C    21.31999969  15.21999931  53.99000168
C    22.60999870  15.53999996  54.34000015
C    22.93999863  15.85000038  55.68000031
C    21.93000031  15.93999958  56.60999680
C    20.58000183  15.65999985  56.25000000
C    16.45000076  15.26999950  55.31999969
C    15.78999996  15.39999962  56.56000137
C    14.40000057  15.36999893  56.55000305
C    24.40999985  15.97000027  56.02000427
H    24.77975655  15.35136986  56.83773041
H    19.90999985  16.00000000  58.22000122
H    18.60999870  14.75999928  53.52000427
H    21.12999916  14.85000038  52.98999786
H    23.39999962  15.43000031  53.60000229
H    22.13000107  16.17000008  57.64999771
H    13.80000019  15.52999973  57.44999695
H    25.03999901  15.82999992  55.13000107
H    24.47000122  17.04000092  56.23000336
S    13.32999992  14.56999969  52.75000000
C    10.65000057  14.39000034  53.43999863
C    11.94000053  14.61999989  53.85000229
C    12.22000027  14.89999962  55.22999573
C    11.21999931  15.13000011  56.16000366
C     9.92000008  14.68999958  55.81999969
C     8.82999992  14.73000050  56.73999786
C     7.57000017  14.30999947  56.39999771
C     7.37999964  13.80000019  55.08999634
C     8.43999958  13.60000038  54.22999954
C     9.70000076  14.21000004  54.47999954
C    13.64999962  15.11999989  55.40000153
C    14.32999992  14.93000031  54.16999817
C    15.72000027  15.03000069  54.15000153
C     5.98999977  13.36999989  54.66999817
H     5.57668257  14.05411148  53.92887878
H    10.39000034  13.89000034  52.51999664
H    11.44999981  15.29000092  57.21000290
H     8.96000004  15.17000008  57.72999573
H     6.69000053  14.42000008  57.02000046
H     8.34000015  13.28999996  53.20000076
H    16.22999954  14.93000031  53.20000076
H     5.36000013  13.35999966  55.56000137
H     6.01999998  12.34000015  54.27999878
