96

S    15.59999943  14.91000080  64.43000031
C    18.32999992  15.06999969  63.72000122
C    17.02000046  14.84000015  63.36999893
C    16.64999962  14.45000076  62.04000092
C    17.59000015  14.50000000  61.02000427
C    18.96000099  14.67000008  61.30000305
C    20.03999901  14.65999985  60.37000275
C    21.32999802  15.03000069  60.63999939
C    21.63000107  15.44000053  61.95999908
C    20.61000061  15.44000053  62.88999939
C    19.27999878  15.01000023  62.67000198
C    15.21999931  14.27999973  61.86999893
C    14.52000046  14.60000038  63.06000137
C    13.12999916  14.63999939  63.08000183
C    23.05999947  15.72999954  62.35000229
H    23.40123367  15.21104145  63.24573898
H    18.55999947  15.52000046  64.68000031
H    17.35000038  14.35999966  59.97000122
H    19.77000046  14.28999996  59.38000107
H    22.10000038  15.00000000  59.86999893
H    20.76000023  15.80000019  63.90999603
H    12.67000008  14.98999977  64.00000000
H    23.64999962  15.57999992  61.44000244
H    23.01000214  16.79999924  62.60000229
S    12.05000019  14.15999985  59.29999924
C     9.38000011  13.80000019  59.93000031
C    10.62000084  14.21000004  60.34999847
C    10.95999908  14.40999985  61.72999954
C     9.92000008  14.37999916  62.64999771
C     8.59000015  14.14999962  62.22999954
C     7.50999975  14.34000015  63.13000107
C     6.21000004  14.23999977  62.68000031
C     5.96000004  13.75000000  61.37000275
C     6.96000004  13.63000011  60.43000031
C     8.30999947  13.80000019  60.86000061
C    12.39999962  14.37000084  61.91999817
C    13.12999916  14.23999977  60.70999908
C    14.51000023  14.06999969  60.68000031
C     4.51999998  13.42000008  61.04000092
H     4.12165880  14.01039886  60.21486282
H     9.13999939  13.53999996  58.89999771
H    10.24000072  14.47999954  63.68000031
H     7.64999962  14.67000008  64.15999603
H     5.38000011  14.60000038  63.27999878
H     6.72999954  13.50000000  59.36999893
H    15.01999950  14.00000000  59.72000122
H     3.95000005  13.45999908  61.97999954
H     4.51999998  12.36999989  60.72999954
S    16.27000046  15.70000076  57.72999573
C    18.98999977  15.72999954  57.04000092
C    17.69000053  15.42000008  56.70000076
C    17.29999924  14.93999958  55.40999985
C    18.29000092  14.60999966  54.50000000
C    19.64999962  14.88999939  54.79999924
C    20.62999916  14.75999928  53.77999878
C    21.91999817  15.17000008  54.02000046
C    22.34999847  15.52000046  55.33000183
C    21.38000107  15.71000004  56.29000092
C    19.98999977  15.46000004  56.07999802
C    15.85999966  15.01000023  55.21999741
C    15.15999985  15.47999954  56.37000275
C    13.76999950  15.51000023  56.44000244
C    23.81000137  15.72000027  55.63999939
H    24.18020630  15.26436424  56.55839157
H    19.37999916  16.20000076  57.94000244
H    18.09999847  14.44000053  53.44999695
H    20.29000092  14.67000008  52.75000000
H    22.63000107  15.08999920  53.20000076
H    21.67000008  16.00000000  57.29000092
H    13.27000046  15.78999996  57.36000061
H    24.30999947  15.34000015  54.73999786
H    24.00000000  16.79999924  55.70000076
S    12.61000061  14.35999966  52.81999969
C     9.92000008  14.15999985  53.55999756
C    11.21000099  14.52999973  53.88000107
C    11.59999943  15.06000042  55.14999771
C    10.59000015  15.25000000  56.06999969
C     9.23999977  14.93999958  55.76000214
C     8.22000027  15.06000042  56.75000000
C     6.91999960  14.70999908  56.45000076
C     6.52999973  14.32000065  55.13999939
C     7.51999950  14.04000092  54.22999954
C     8.88000011  14.32999992  54.51000214
C    13.04999924  15.11000061  55.31000137
C    13.73999977  14.68999958  54.15000153
C    15.13000011  14.55999947  54.12000275
C     5.13999987  13.86000061  54.79000092
H     4.82743597  14.44250584  53.92334747
H     9.61000061  13.73999977  52.60000229
H    10.90999985  15.43000031  57.09000015
H     8.50000000  15.31999969  57.76000214
H     6.11999989  14.81999969  57.16999817
H     7.23999977  13.53000069  53.30999756
H    15.70000076  14.14999962  53.29000092
H     4.50000000  14.01000023  55.66999817
H     5.07999992  12.79999924  54.50000000
