96

S    16.13999939  15.26000023  64.55999756
C    18.79999924  15.47999954  63.86000061
C    17.56000137  14.96999931  63.54000092
C    17.21999931  14.52999973  62.22000122
C    18.25000000  14.57999992  61.30000305
C    19.59000015  14.88000011  61.63000107
C    20.62999916  14.73000050  60.66999817
C    21.94999886  14.82999992  61.05999756
C    22.27000046  15.26000023  62.36999893
C    21.25999832  15.57999992  63.25000000
C    19.88000107  15.36999893  62.95000076
C    15.77000046  14.50000000  62.08000183
C    15.03999901  14.81999969  63.25000000
C    13.64999962  14.85000038  63.34999847
C    23.69999886  15.54999924  62.75000000
H    23.96927261  15.11774445  63.71371460
H    19.06999969  15.76000023  64.87999725
H    17.97999954  14.22999954  60.31000137
H    20.35000038  14.59000015  59.62999725
H    22.76000023  14.65999985  60.34999847
H    21.45999908  15.88999939  64.27000427
H    13.12999916  14.98999977  64.29000092
H    24.28999901  15.00000000  62.01000214
H    24.03000069  16.60000038  62.67000198
S    12.48000050  14.22000027  59.64000320
C     9.81999969  13.82999992  60.38999939
C    11.07999992  14.25000000  60.72999954
C    11.46000004  14.59000015  62.06999969
C    10.47999954  14.61999989  63.02999878
C     9.13000011  14.29999924  62.71999741
C     8.05999947  14.25000000  63.64999771
C     6.81999969  13.73000050  63.36999893
C     6.48000002  13.43000031  62.02000046
C     7.50999975  13.36999989  61.10000229
C     8.80999947  13.88000011  61.38000107
C    12.92000008  14.63999939  62.16999817
C    13.63000011  14.42000008  60.97000122
C    15.01999950  14.37000084  60.90000153
C     5.03999996  13.07000065  61.72000122
H     4.67837000  13.56635475  60.81946945
H     9.68999958  13.35000038  59.41999817
H    10.70000076  14.65000057  64.09999847
H     8.15999985  14.59000015  64.68000031
H     6.00000000  13.69999981  64.08000183
H     7.55000019  12.86000061  60.14999771
H    15.57999992  14.04999924  60.02999878
H     4.41000032  13.26000023  62.58999634
H     5.01999950  11.97999954  61.59999847
S    12.81999969  12.02999973  56.52999878
C    10.19999981  11.26999950  57.12999725
C    11.52999973  11.23000050  57.44999695
C    12.05000019  10.62999916  58.64999771
C    11.13000011  10.01999950  59.48999786
C     9.73999977  10.14000034  59.27999878
C     8.85999966   9.57999992  60.25000000
C     7.50999975   9.63999939  60.00000000
C     7.03000021  10.08999920  58.74000168
C     7.86999989  10.70000076  57.83000183
C     9.26999950  10.73999977  58.06000137
C    13.43000031  10.98999977  58.95999908
C    13.99000072  11.54999924  57.77999878
C    15.31999969  11.92000008  57.63000107
C     5.55000019   9.96000004  58.43000031
H     5.20851326  10.26591587  57.44111252
H     9.92000008  11.82999992  56.24000168
H    11.39000034   9.43000031  60.35999680
H     9.21000004   9.19999981  61.19999695
H     6.86999989   9.07999992  60.66999817
H     7.42999983  11.10999966  56.93000031
H    15.75000000  12.30000019  56.70999908
H     5.32999992   8.90999985  58.61999893
H     5.07999992  10.67000008  59.12000275
S    16.82999992  10.40999985  60.97999954
C    19.45000076  10.88000107  60.14999771
C    18.11000061  10.95999908  59.87999725
C    17.61000061  11.69000053  58.75000000
C    18.52000046  12.01000023  57.76000214
C    19.90999985  11.85999966  57.95000076
C    20.90999985  12.10000038  56.97000122
C    22.22999954  11.77000046  57.18000031
C    22.69000053  11.44999981  58.47999954
C    21.78999901  11.38000011  59.52000046
C    20.38999939  11.40999985  59.22999954
C    16.14999962  11.68000031  58.73000336
C    15.59999943  11.06999969  59.88999939
C    14.23999977  10.80000019  60.07999802
C    24.15999985  11.28000069  58.77999878
H    24.37903786  11.55556297  59.81159210
H    19.78000069  10.52999973  61.12999725
H    18.17000008  12.25999928  56.76000214
H    20.59000015  12.48999977  56.00000000
H    23.03999901  11.84999943  56.45999908
H    22.27000046  10.93999958  60.38999939
H    13.94000053  10.25000000  60.96000290
H    24.65999985  12.01000023  58.13999939
H    24.56000137  10.29999924  58.52000427
