96

S    16.18000031  15.39999962  64.31999969
C    18.86999893  15.54999924  63.67000198
C    17.61999893  15.11000061  63.31999969
C    17.20999908  14.67000008  62.02000046
C    18.22000122  14.55000019  61.07999802
C    19.57999992  14.75999928  61.45000076
C    20.58000183  14.52000046  60.47000122
C    21.84000015  14.96999931  60.77000046
C    22.17000008  15.47999954  62.05999756
C    21.21999931  15.82999992  62.98999786
C    19.90999985  15.34000015  62.71999741
C    15.77000046  14.59000015  61.84000015
C    15.07999992  15.10000038  62.95999908
C    13.69999981  15.29000092  62.95000076
C    23.61000061  15.88999939  62.28000259
H    24.10156059  15.17759514  62.94253540
H    19.05999947  16.11999893  64.58000183
H    17.88999939  14.22000027  60.10000229
H    20.40999985  14.06999969  59.50000000
H    22.57999802  14.75999928  60.00000000
H    21.47000122  16.36999893  63.88999939
H    13.19000053  15.34999943  63.89999771
H    24.23000145  15.90999985  61.38000107
H    23.55999947  16.93000031  62.62000275
S    12.55000019  13.81000042  59.43999863
C     9.94999981  13.43999958  60.33000183
C    11.18999958  13.97999954  60.56999969
C    11.51000023  14.70999908  61.75000000
C    10.51000023  14.89999962  62.69000244
C     9.22999954  14.32999992  62.50999832
C     8.14000034  14.63999939  63.37999725
C     6.84999990  14.32999992  63.02999878
C     6.57000017  13.45999908  61.95000076
C     7.60999966  13.15000057  61.10000229
C     8.96000004  13.53999996  61.33999634
C    12.94999981  14.89999962  61.83000183
C    13.64999962  14.40999985  60.68999863
C    15.03000069  14.25000000  60.70000076
C     5.13999987  13.05999947  61.65000153
H     4.78448915  13.59326649  60.76833344
H     9.68999958  13.14000034  59.31999969
H    10.67000008  15.31000042  63.68000031
H     8.47999954  15.31000042  64.15999603
H     6.01000023  14.63000107  63.64999771
H     7.37999964  12.76999950  60.11000061
H    15.65000057  13.89999962  59.87999725
H     4.53000021  13.27000046  62.54000092
H     5.12000036  11.97999954  61.45999908
S    13.09000015  11.68000031  56.23000336
C    10.40999985  10.95999908  56.81000137
C    11.75000000  10.92000008  57.11999893
C    12.18999958  10.51000023  58.40999985
C    11.30000019   9.90999985  59.27999878
C     9.92000008   9.85999966  58.95999908
C     8.94999981   9.31999969  59.85000229
C     7.60999966   9.59000015  59.71000290
C     7.13000011  10.21999931  58.53000259
C     8.05999947  10.64000034  57.61000061
C     9.46000004  10.44999981  57.72999573
C    13.57999992  10.84000015  58.72000122
C    14.19000053  11.47999954  57.61000061
C    15.51000023  11.90000057  57.57999802
C     5.69999981  10.72000027  58.46000290
H     5.24249697  10.32683372  57.55214310
H    10.11000061  11.59000015  55.97000122
H    11.49000072   9.46000004  60.26000214
H     9.38000011   8.90999985  60.76000214
H     6.98000002   9.26999950  60.54000092
H     7.71000004  11.23999977  56.77000046
H    16.00000000  12.25000000  56.66999817
H     5.15999985  10.34000015  59.34000015
H     5.69999981  11.79999924  58.61000061
S    16.77999878  10.59999943  61.19999695
C    19.48999977  10.76000023  60.43000031
C    18.15000153  10.95000076  60.13999939
C    17.69000053  11.54000092  58.92000198
C    18.68999863  11.98999977  58.08000183
C    20.07999802  11.80999947  58.29000092
C    21.02999878  12.38999939  57.39999771
C    22.36999893  12.13999939  57.58999634
C    22.81999969  11.42000008  58.74000168
C    21.87999916  10.90000057  59.59999847
C    20.48000145  11.11999989  59.47999954
C    16.25000000  11.51000023  58.70999908
C    15.65999985  10.92000008  59.86000061
C    14.30999947  10.57999992  59.87999725
C    24.23999977  10.95000076  58.94000244
H    24.52303314  11.32501984  59.92354202
H    19.72999954  10.27999973  61.37000275
H    18.42000008  12.28999996  57.06999969
H    20.69999886  12.96000004  56.53999710
H    23.03999901  12.35999966  56.77000046
H    22.19000053  10.38000011  60.50000000
H    13.86000061  10.11000061  60.75000000
H    24.90999985  11.32999992  58.15999985
H    24.30000114   9.85999966  58.96999741
