96

S    16.22999954  15.34000015  64.31000519
C    18.92000008  15.52000046  63.59000397
C    17.63000107  15.18000031  63.23999786
C    17.29999924  14.65999985  61.95000076
C    18.27000046  14.50000000  60.97000122
C    19.62000084  14.73999977  61.30000305
C    20.69999886  14.61999989  60.37000275
C    21.96000099  15.03000069  60.70999908
C    22.18000031  15.75000000  61.90999985
C    21.15999985  15.93999958  62.83000183
C    19.88000107  15.39999962  62.56000137
C    15.86999989  14.44000053  61.84000015
C    15.15999985  14.72000027  63.04000092
C    13.78000069  14.86999989  63.04000092
C    23.51000023  16.38000107  62.25000000
H    24.07174301  15.78270435  62.96817780
H    19.15999985  16.00000000  64.52999878
H    18.12999916  14.34999943  59.89999771
H    20.55999947  14.40999985  59.31000137
H    22.70999908  15.21000004  59.93999863
H    21.35000038  16.55999947  63.69999695
H    13.21000004  15.13000011  63.93000031
H    24.11000061  16.36000061  61.32999802
H    23.34000015  17.39999962  62.63999939
S    12.71999931  13.96000004  59.29000092
C    10.03000069  13.81999969  59.97000122
C    11.31999969  14.11999893  60.37000275
C    11.67000008  14.55000019  61.69000244
C    10.69000053  14.60000038  62.65999603
C     9.35999966  14.29999924  62.29999924
C     8.34000015  14.39000034  63.29000092
C     7.04999971  14.04000092  62.94000244
C     6.71000004  13.55000019  61.65000153
C     7.69000006  13.48999977  60.68000031
C     9.01000023  13.92000008  60.94999695
C    13.10999966  14.65000057  61.83000183
C    13.81000042  14.29999924  60.63999939
C    15.19999981  14.19000053  60.63999939
C     5.26999998  13.25000000  61.29000092
H     4.89243460  13.89827251  60.49924850
H     9.86999989  13.27000046  59.05000305
H    11.03999996  14.75999928  63.68000031
H     8.48999977  14.82999992  64.27000427
H     6.35999966  14.11000061  63.76999664
H     7.59999990  13.22999954  59.62999725
H    15.67999935  14.06000042  59.66999817
H     4.73000002  13.40999985  62.22999954
H     5.19000006  12.18999958  61.02000427
S    12.71999931  11.84999943  56.14999771
C    10.00000000  11.39999962  56.86000061
C    11.35000038  11.28999901  57.14000320
C    11.76000023  10.70000076  58.36999893
C    10.82999992  10.31000042  59.31999969
C     9.44999981  10.31000042  59.02000046
C     8.42000008   9.88000011  59.89999771
C     7.11000013  10.15999985  59.59000015
C     6.71999979  10.75000000  58.36000061
C     7.69000006  11.10999966  57.44999695
C     9.04999924  10.80999947  57.72999573
C    13.19000053  10.88999939  58.56999969
C    13.85000038  11.51000023  57.48000336
C    15.19999981  11.80999947  57.48000336
C     5.26999998  11.10000038  58.13000107
H     4.97831917  10.70872021  57.15536118
H     9.67000008  11.95000076  55.98999786
H    11.16000080   9.86999989  60.25000000
H     8.65999985   9.40999985  60.84999847
H     6.35999966   9.96999931  60.35999680
H     7.40000010  11.75000000  56.62000275
H    15.72000027  12.41000080  56.72999954
H     4.63999987  10.80999947  58.97999573
H     5.17000008  12.20000076  58.16999817
S    16.36000061  10.39999962  61.03000259
C    19.06999969  10.88000107  60.50000000
C    17.75000000  11.11999989  60.20000076
C    17.28000069  11.71000004  58.97999573
C    18.25000000  12.18000031  58.11999893
C    19.63000107  11.97000027  58.36999893
C    20.62000084  12.22000027  57.37999725
C    21.97999954  12.11999989  57.61000061
C    22.42000198  11.61000061  58.86000061
C    21.45000076  11.25000000  59.77000427
C    20.05000114  11.39999962  59.61999893
C    15.86999989  11.51999950  58.68000031
C    15.21000004  10.90000057  59.77000427
C    13.89000034  10.50000000  59.72999954
C    23.88000107  11.26999950  59.03999710
H    24.22835732  11.51882458  60.04241180
H    19.36000061  10.24000072  61.32999802
H    18.04000092  12.53999901  57.11000061
H    20.27000046  12.64000034  56.45000076
H    22.70000076  12.35000038  56.84000015
H    21.80999947  10.62000084  60.59000015
H    13.35999966   9.96999931  60.52000046
H    24.51000023  11.69000053  58.25000000
H    23.98999977  10.19000053  58.95999908
