96

S    16.36000061  15.21000004  64.56999969
C    19.04000092  15.44000053  63.68999863
C    17.75000000  15.00000000  63.48999786
C    17.34000015  14.48999977  62.21000290
C    18.26000023  14.39000034  61.18999863
C    19.57999992  14.85999966  61.38999939
C    20.59999847  14.63000107  60.43000031
C    21.87999916  15.08999920  60.65000153
C    22.29000092  15.67000008  61.88000107
C    21.31999969  15.90000057  62.83000183
C    20.00000000  15.40999985  62.64999771
C    15.90000057  14.59000015  62.08000183
C    15.19000053  14.85999966  63.27999878
C    13.80000019  14.96999931  63.29000092
C    23.71999931  15.85999966  62.32999802
H    23.92646027  15.27621746  63.22703171
H    19.19000053  15.98000050  64.61999512
H    17.97000122  13.88000011  60.27000046
H    20.26000023  14.25000000  59.47000122
H    22.60999870  14.81999969  59.88999939
H    21.56999969  16.40999985  63.75999832
H    13.27999973  15.29999924  64.18000031
H    24.37000084  15.52999973  61.51000214
H    23.84000015  16.94000053  62.50999832
S    12.65999985  14.40000057  59.61000061
C     9.96000004  13.86000061  60.30000305
C    11.25000000  14.18000031  60.65999985
C    11.63000011  14.56999969  61.98999786
C    10.59999943  14.75000000  62.88999939
C     9.23999977  14.60000038  62.54000092
C     8.23999977  14.75000000  63.54000092
C     6.90999985  14.53999996  63.23999786
C     6.57999992  14.17000008  61.90999985
C     7.53000021  13.94999981  60.93999863
C     8.92000008  14.14999962  61.20999908
C    13.07000065  14.73999977  62.11999893
C    13.81999969  14.55999947  60.93000031
C    15.19999981  14.40999985  60.86999893
C     5.18000031  13.69999981  61.59000015
H     4.83933926  14.19679737  60.68157196
H     9.70000076  13.48999977  59.31000137
H    10.88999939  14.98000050  63.92000198
H     8.56999969  14.96999931  64.55000305
H     6.15000010  14.53999996  64.01999664
H     7.25000000  13.53000069  59.98000336
H    15.69000053  14.06999969  59.95999908
H     4.51999998  13.93000031  62.43000031
H     5.22000027  12.63000011  61.38999939
S    16.07999992  15.76000023  57.93000031
C    18.81000137  15.67000008  57.32999802
C    17.52000046  15.31999969  56.98999786
C    17.14999962  14.81999969  55.70000076
C    18.18000031  14.59000015  54.79999924
C    19.48999977  15.06999969  55.04000092
C    20.53999901  14.92000008  54.09999847
C    21.86000061  15.18000031  54.40000153
C    22.19000053  15.72999954  55.66999817
C    21.18999863  15.93000031  56.59000015
C    19.82999992  15.54999924  56.36000061
C    15.71000004  14.82999992  55.50000000
C    14.96999931  15.22999954  56.65000153
C    13.61999989  15.54999924  56.72999954
C    23.59999847  16.21000099  55.87999725
H    24.13326454  15.66962433  56.66212082
H    18.96999931  16.10000038  58.31999969
H    17.89999962  14.06999969  53.88999939
H    20.22999954  14.55000019  53.13000107
H    22.56000137  15.03999901  53.57999802
H    21.42999840  16.31000137  57.57999802
H    13.07999992  15.93999958  57.57999802
H    24.20999908  16.13000107  54.98000336
H    23.45000076  17.26000023  56.17000198
S    12.55000019  14.42000008  53.04000092
C     9.86999989  14.22000027  53.76999664
C    11.13999939  14.65999985  54.09000015
C    11.47999954  15.08999920  55.40999985
C    10.52000046  15.21000004  56.39999771
C     9.19000053  14.96000099  55.98999786
C     8.15999985  15.03000069  56.97999954
C     6.84000015  14.80000019  56.70000076
C     6.44000006  14.37999916  55.40000153
C     7.44000006  14.18000031  54.47999954
C     8.82999992  14.42999935  54.71000290
C    12.92000008  15.21999931  55.56000137
C    13.60999966  14.73999977  54.41999817
C    14.98999977  14.55000019  54.33000183
C     5.07000017  13.85000038  55.06000137
H     4.76340532  14.24215603  54.09030533
H     9.68000031  13.60999966  52.88999939
H    10.72999954  15.43000031  57.43999863
H     8.40999985  15.08999920  58.04000092
H     6.05999994  15.05000019  57.42000198
H     7.27999973  13.50999928  53.63999939
H    15.46000004  14.14000034  53.44999695
H     4.44999981  14.23999977  55.87999725
H     5.13999987  12.76000023  55.13000107
