96

S    15.62000084  15.29999924  64.36999512
C    18.34000015  15.54999924  63.72000122
C    17.06999969  15.18000031  63.34999847
C    16.72999954  14.65999985  62.05999756
C    17.76000023  14.47999954  61.16000366
C    19.11000061  14.77000046  61.50000000
C    20.19000053  14.51000023  60.61999893
C    21.48999977  14.80000019  60.94999695
C    21.77999878  15.39999962  62.19999695
C    20.75000000  15.65999985  63.08000183
C    19.38999939  15.34999943  62.78999710
C    15.29999924  14.70999908  61.77999878
C    14.60000038  15.17000008  62.93000031
C    13.25000000  15.52000046  62.91999817
C    23.15999985  15.80000019  62.67000198
H    23.53786278  15.17973232  63.48276520
H    18.57999992  16.03000069  64.66000366
H    17.54999924  14.01000023  60.20999908
H    20.07999802  14.18000031  59.59000015
H    22.36000061  14.56999969  60.33000183
H    20.86999893  16.10000038  64.06999969
H    12.84999943  15.73999977  63.89999771
H    23.88999939  15.82999992  61.84999847
H    23.12999916  16.84999847  62.97999954
S    11.97000027  13.94000053  59.52000046
C     9.31999969  13.80000019  60.35999680
C    10.60999966  14.18000031  60.63999939
C    11.02000046  14.78999996  61.86999893
C    10.06999969  15.00000000  62.84999847
C     8.73000050  14.60999966  62.60000229
C     7.77999973  14.65999985  63.64999771
C     6.44999981  14.32999992  63.48999786
C     6.07999992  13.75000000  62.25000000
C     6.97000027  13.63999939  61.20999908
C     8.34000015  14.01999950  61.35000229
C    12.44999981  15.06000042  61.86999893
C    13.12999916  14.51000023  60.75000000
C    14.50000000  14.32000065  60.70000076
C     4.61000013  13.56999969  61.91999817
H     4.30413055  14.30977726  61.18021774
H     9.11999989  13.26000023  59.43000031
H    10.32999992  15.38000011  63.82999802
H     8.14999962  15.07999992  64.59000397
H     5.71000004  14.52000046  64.27000427
H     6.61999989  13.21000004  60.27999878
H    14.86999989  13.83999920  59.79999924
H     3.98000002  13.42000008  62.80000305
H     4.57999992  12.61000061  61.38000107
S    12.56999969  11.90000057  56.52999878
C     9.85000038  11.31000042  57.09999847
C    11.18999958  11.21999931  57.41000366
C    11.68000031  10.59000015  58.60000229
C    10.71000004  10.03000069  59.40999985
C     9.31999969  10.11999989  59.16999817
C     8.28999996   9.78999996  60.08999634
C     6.97000027  10.10000038  59.86999893
C     6.52999973  10.77000046  58.70999908
C     7.50000000  11.16000080  57.80000305
C     8.86999989  10.84000015  58.00000000
C    13.09000015  10.82999992  58.88999939
C    13.71999931  11.51999950  57.83000183
C    15.06999969  11.87000084  57.78999710
C     5.09999990  11.18000031  58.43999863
H     4.72909069  10.59510517  57.59832001
H     9.52999973  12.05000019  56.36000061
H    11.05000019   9.50000000  60.30000305
H     8.55000019   9.38000011  61.05999756
H     6.28999996  10.01000023  60.72000122
H     7.13999987  11.85999966  57.04999924
H    15.54999924  12.23999977  56.90000153
H     4.42000008  10.93000031  59.27000046
H     4.94000006  12.25000000  58.29999924
S    16.42000008  10.31999969  61.24000168
C    19.12999916  10.80999947  60.56000137
C    17.79000092  10.92000008  60.28999710
C    17.32999992  11.44999981  59.02999878
C    18.27000046  11.90000057  58.13000107
C    19.65999985  11.84000015  58.39000320
C    20.72999954  12.22000027  57.52999878
C    22.04000092  12.18000031  57.95000076
C    22.39999962  11.56999969  59.18000031
C    21.45000076  11.21999931  60.11000061
C    20.10000038  11.31999969  59.65999985
C    15.88999939  11.43000031  58.83999634
C    15.27999973  10.81999969  59.97000122
C    13.93000031  10.52000046  59.97000122
C    23.84000015  11.21999931  59.47999954
H    24.22200584  11.46759701  60.47038651
H    19.56999969  10.40999985  61.46999741
H    17.98999977  12.31999969  57.16999817
H    20.39999962  12.64000034  56.58000183
H    22.82999992  12.43000031  57.25000000
H    21.73000145  10.67999935  61.00999832
H    13.53999996   9.94000053  60.79999924
H    24.41999817  11.79999924  58.75000000
H    23.95999908  10.14000034  59.36999893
