96

S    15.77999973  14.92000008  64.62999725
C    18.38999939  15.36000061  63.85000229
C    17.15999985  14.84000015  63.50999832
C    16.86000061  14.25000000  62.23999786
C    17.88999939  14.18000031  61.31999969
C    19.19000053  14.65999985  61.63000107
C    20.28000069  14.63000107  60.72000122
C    21.54000092  15.06999969  61.05999756
C    21.80999947  15.65000057  62.32999802
C    20.75000000  15.73999977  63.20000076
C    19.44000053  15.26000023  62.90999985
C    15.40999985  14.17000008  62.11000061
C    14.70000076  14.47000027  63.29999924
C    13.30999947  14.56999969  63.30999756
C    23.18000031  16.11999893  62.76000214
H    23.48628807  15.60714531  63.67174149
H    18.54999924  15.90000057  64.77999878
H    17.75000000  13.76999950  60.31999969
H    20.05000114  14.15999985  59.77000427
H    22.36000061  14.98000050  60.34999847
H    20.95000076  16.18000031  64.18000031
H    12.72999954  14.73000050  64.20999908
H    23.92999840  16.00000000  61.97000122
H    22.95999908  17.18000031  62.95000076
S    12.18999958  13.78999901  59.52999878
C     9.53999996  13.55999947  60.22999573
C    10.80000019  13.94000053  60.63000107
C    11.17000008  14.48999977  61.90000153
C    10.14999962  14.63999939  62.81999969
C     8.84000015  14.22000027  62.50999832
C     7.75000000  14.46000004  63.40000153
C     6.50000000  13.96000004  63.11999893
C     6.11999989  13.63999939  61.79000092
C     7.16000032  13.43999958  60.90999985
C     8.52000046  13.73999977  61.18999863
C    12.61999989  14.47000027  62.09999847
C    13.27000046  14.06000042  60.90999985
C    14.65000057  13.88000011  60.97000122
C     4.72000027  13.12999916  61.50000000
H     4.27011824  13.70841980  60.69306946
H     9.36999989  13.28999996  59.19000244
H    10.25000000  14.93999958  63.86000061
H     8.05999947  14.75999928  64.40000153
H     5.84000015  14.06000042  63.96999741
H     7.03999996  13.02000046  59.92000198
H    15.03000069  13.56999969  60.00000000
H     4.15999985  13.12000084  62.43999863
H     4.80999994  12.07999992  61.19999695
S    12.65999985  11.46000004  56.56999969
C    10.01999950  10.95999908  57.11999893
C    11.31999969  10.80000019  57.52999878
C    11.77999973  10.36000061  58.81999969
C    10.80000019   9.88000011  59.66999817
C     9.44000053   9.98999977  59.31000137
C     8.45000076   9.70000076  60.28999710
C     7.09999990   9.81999969  60.06999969
C     6.67999983  10.42000008  58.86000061
C     7.63000011  10.80999947  57.94000244
C     9.02999973  10.57999992  58.06000137
C    13.22000027  10.47999954  59.00000000
C    13.80000019  11.16000080  57.88999939
C    15.13000011  11.56999969  57.88000107
C     5.21000004  10.62999916  58.54000092
H     4.91738939  10.26602077  57.55511475
H     9.85000038  11.65999985  56.30000305
H    11.09000015   9.59000015  60.68000031
H     8.76000023   9.35000038  61.27999878
H     6.30999994   9.50000000  60.75000000
H     7.35000038  11.26000023  57.00000000
H    15.59999943  11.78999996  56.93000031
H     4.63999987  10.14000034  59.34000015
H     5.03000021  11.71000004  58.59000397
S    16.40999985  10.06000042  61.35000229
C    19.10000038  10.57000065  60.61000061
C    17.75000000  10.67000008  60.35999680
C    17.30999947  11.30000019  59.15000153
C    18.19000053  11.79999924  58.22000122
C    19.56999969  11.69000053  58.52000427
C    20.50000000  12.28999996  57.62000275
C    21.84000015  12.32999992  57.93000031
C    22.36000061  11.59999943  59.02999878
C    21.47999954  11.03999996  59.92000198
C    20.06999969  11.14999962  59.75000000
C    15.85999966  11.28000069  59.03999710
C    15.25000000  10.55999947  60.11000061
C    13.92000008  10.14999962  60.15999603
C    23.82999802  11.36000061  59.27999878
H    23.96517181  11.38134289  60.36137390
H    19.54000092   9.88000011  61.32999802
H    17.77000046  12.30999947  57.35000229
H    20.10999870  12.68000031  56.68000031
H    22.42000198  13.02999973  57.34000397
H    21.76000214  10.47999954  60.80999756
H    13.36999989   9.76000023  61.00999832
H    24.44999886  12.13000107  58.79000092
H    24.11999893  10.36999893  58.90999603
