96

S    15.80000019  15.44000053  64.52999878
C    18.48999977  15.24000072  63.89999771
C    17.19000053  14.98999977  63.52000427
C    16.79999924  14.47000027  62.25000000
C    17.82999992  14.00000000  61.44000244
C    19.18000031  14.29999924  61.70999908
C    20.17999840  14.26000023  60.70000076
C    21.48999977  14.63000107  60.93000031
C    21.88999939  15.08999920  62.22000122
C    20.86000061  15.36999893  63.08000183
C    19.50000000  14.96000099  62.95000076
C    15.34999943  14.52000046  62.09999847
C    14.68000031  15.14999962  63.18000031
C    13.30999947  15.39000034  63.18000031
C    23.29000092  15.47999954  62.63000107
H    23.73177528  14.90284061  63.44229507
H    18.70000076  15.90000057  64.73000336
H    17.56999969  13.53000069  60.50000000
H    19.82999992  13.96999931  59.71000290
H    22.14999962  14.47000027  60.08999634
H    21.05999947  15.90999985  64.00000000
H    12.79000092  15.75000000  64.05999756
H    23.95000076  15.29999924  61.77000046
H    23.22000122  16.54999924  62.88999939
S    12.22000027  14.19999981  59.52999878
C     9.50000000  14.19999981  60.26000214
C    10.81999969  14.42999935  60.59000015
C    11.13999939  14.86999989  61.91999817
C    10.14000034  15.13000011  62.84000015
C     8.78999996  14.82999992  62.55000305
C     7.75000000  14.91000080  63.52000427
C     6.46000004  14.70999908  63.09999847
C     6.12999964  14.13000011  61.84000015
C     7.13999987  14.01000023  60.90999985
C     8.48999977  14.32000065  61.24000168
C    12.57999992  14.98999977  62.04999924
C    13.27999973  14.46000004  60.93000031
C    14.65000057  14.22000027  60.93000031
C     4.67999983  13.93000031  61.46999741
H     4.35298491  14.37786770  60.53160858
H     9.26999950  13.66000080  59.34000015
H    10.50000000  15.47000027  63.81000137
H     8.02999973  15.36000061  64.47000122
H     5.60999966  14.96000099  63.74000168
H     6.96000004  13.78999901  59.86000061
H    15.19000053  13.75000000  60.12000275
H     3.98000002  14.14000034  62.29000092
H     4.48000002  12.84999943  61.43000031
S    16.28000069  15.39999962  58.15000153
C    19.01000023  15.67000008  57.43999863
C    17.71999931  15.31000042  57.11999893
C    17.31999969  15.17000008  55.75000000
C    18.25000000  14.98999977  54.75000000
C    19.56999969  15.36000061  55.11000061
C    20.53999901  15.54999924  54.08000183
C    21.86000061  15.85000038  54.33000183
C    22.18000031  16.22999954  55.65999985
C    21.31000137  16.20000076  56.72999954
C    20.00000000  15.72999954  56.43000031
C    15.88000107  15.06999969  55.54999924
C    15.17000008  15.19999981  56.77000046
C    13.78999901  15.29000092  56.88000107
C    23.55999947  16.69999886  56.04999924
H    24.00283623  16.02860451  56.78567886
H    19.14999962  16.10000038  58.41999817
H    17.95999908  14.86999989  53.70999908
H    20.30999947  15.32999992  53.04000092
H    22.53000069  16.02000046  53.48999786
H    21.61999893  16.48999977  57.72999573
H    13.36999989  15.62000084  57.83000183
H    24.13999939  16.75000000  55.12000275
H    23.52000046  17.72999954  56.42000198
S    12.68000031  14.65000057  53.08000183
C     9.98000050  14.68000031  53.74000168
C    11.28000069  14.85000038  54.13999939
C    11.64000034  15.06999969  55.51000214
C    10.70000076  15.24000072  56.50000000
C     9.35000038  15.14999962  56.09000397
C     8.23000050  15.25000000  56.97000122
C     6.94000006  14.86999989  56.70000076
C     6.70000029  14.47999954  55.35999680
C     7.63999987  14.56999969  54.36000061
C     8.97999954  14.84000015  54.72999954
C    13.09000015  15.13000011  55.68999863
C    13.76000023  14.93000031  54.45999908
C    15.14000034  14.78000069  54.38999939
C     5.32000017  13.97999954  55.00999832
H     4.90284157  14.64462566  54.25345993
H     9.76000023  14.29999924  52.74000168
H    10.93999958  15.39999962  57.55000305
H     8.43000031  15.39999962  58.02999878
H     6.12999964  14.86999989  57.43000031
H     7.40000010  14.19000053  53.36000061
H    15.69000053  14.42000008  53.53000259
H     4.63000011  13.93000031  55.86000061
H     5.35000038  12.96000004  54.61999893
