96

S    15.77000046  14.51000023  64.55000305
C    18.38999939  14.89999962  63.74000168
C    17.14999962  14.39000034  63.43999863
C    16.81999969  14.04999924  62.09000015
C    17.79999924  14.15999985  61.11999893
C    19.13999939  14.51000023  61.44000244
C    20.22000122  14.34000015  60.54000092
C    21.48999977  14.68000031  60.94999695
C    21.78999901  15.24000072  62.22000122
C    20.72999954  15.44000053  63.08000183
C    19.40000153  15.03000069  62.76000214
C    15.36999893  14.01000023  61.97999954
C    14.67000008  14.37000084  63.15999985
C    13.30999947  14.61999989  63.22000122
C    23.22999954  15.53999996  62.56999969
H    23.52947235  14.86975288  63.37572098
H    18.56999969  15.11000061  64.79000092
H    17.46999931  13.89999962  60.12000275
H    20.06000137  14.01999950  59.51000214
H    22.27000046  14.50000000  60.21999741
H    20.94000053  15.84000015  64.06999969
H    12.88000011  14.89999962  64.18000031
H    23.72999954  15.38000011  61.60999680
H    23.31999969  16.57999992  62.90999985
S    12.13999939  13.71000099  59.56999969
C     9.43000031  13.56999969  60.34000015
C    10.73999977  13.86000061  60.65999985
C    11.10000038  14.37000084  61.93999863
C    10.14000034  14.51000023  62.93000031
C     8.78999996  14.27999973  62.58999634
C     7.73000002  14.47000027  63.50999832
C     6.42000008  14.21000004  63.16999817
C     6.09000015  13.80000019  61.84999847
C     7.03999996  13.71999931  60.86000061
C     8.39999962  13.85000038  61.26999664
C    12.55000019  14.35999966  62.06999969
C    13.27999973  14.11000061  60.86999893
C    14.65000057  13.94999981  60.77000046
C     4.73000002  13.28999996  61.44000244
H     4.19925690  13.99765778  60.80310822
H     9.25000000  13.05999947  59.40000153
H    10.42000008  14.75999928  63.95000076
H     7.88999987  14.82999992  64.52999878
H     5.61999989  14.25000000  63.89999771
H     6.81999969  13.59000015  59.80999756
H    15.17000008  13.78999901  59.82999802
H     4.13000011  12.98999977  62.30999756
H     4.94000006  12.28000069  61.05999756
S    12.89999962  11.94000053  56.31000137
C    10.22999954  11.26999950  56.79999924
C    11.54999924  11.13000011  57.12999725
C    11.95000076  10.48999977  58.34999847
C    10.95999908   9.98999977  59.18000031
C     9.56999969  10.13000011  58.92000198
C     8.56999969   9.72999954  59.84000397
C     7.26000023  10.00000000  59.52000046
C     6.91999960  10.57000065  58.26000214
C     7.86999989  10.85999966  57.29999924
C     9.23999977  10.69000053  57.63000107
C    13.38000107  10.55999947  58.62999725
C    13.96999931  11.32999992  57.58999634
C    15.31999969  11.61999893  57.67000198
C     5.47999954  11.00999928  58.11999893
H     5.03327942  10.65545940  57.19110489
H     9.90999985  11.78999996  55.90000153
H    11.23999977   9.38000011  60.02999878
H     8.76999950   9.30999947  60.81999969
H     6.54999971   9.85999966  60.31999969
H     7.55000019  11.44999981  56.45000076
H    15.71000004  12.28999996  56.90000153
H     4.81999969  10.77000046  58.95999908
H     5.46999979  12.10000038  58.00000000
S    16.72999954   9.92000008  60.97000122
C    19.36000061  10.62999916  60.40999985
C    18.02999878  10.72999954  60.06999969
C    17.56999969  11.33999920  58.86000061
C    18.47999954  11.77999973  57.90999985
C    19.85000038  11.71000004  58.25000000
C    20.81000137  12.03999996  57.25999832
C    22.15999985  11.92999935  57.49000168
C    22.59000015  11.43000031  58.75000000
C    21.70999908  10.95000076  59.68999863
C    20.30999947  11.10000038  59.47000122
C    16.13000107  11.17000008  58.73000336
C    15.52000046  10.44000053  59.78000259
C    14.15999985  10.17000008  59.71000290
C    24.06999969  11.30000019  59.02999878
H    24.28319740  11.58426380  60.06045532
H    19.81999969  10.19000053  61.29000092
H    18.12000084  12.30999947  57.04000092
H    20.50000000  12.48999977  56.31000137
H    22.77000046  12.17000008  56.62000275
H    22.01999855  10.34999943  60.54999924
H    13.69999981   9.67000008  60.56000137
H    24.70999908  11.80999947  58.29999924
H    24.30999947  10.22999954  58.94000244
