96

S    15.72000027  15.34000015  64.26000214
C    18.44000053  15.44999981  63.63999939
C    17.15999985  15.18000031  63.22999954
C    16.81999969  14.80999947  61.88999939
C    17.86000061  14.70999908  60.97999954
C    19.19000053  14.77000046  61.45999908
C    20.22000122  14.60999966  60.48999786
C    21.50000000  14.91000080  60.90000153
C    21.90999985  15.19999981  62.22999954
C    20.92000008  15.21999931  63.18000031
C    19.55000114  15.14999962  62.80000305
C    15.38000011  14.72000027  61.70999908
C    14.65000057  14.98000050  62.88999939
C    13.27000046  14.91000080  63.04000092
C    23.34000015  15.52999973  62.60000229
H    23.78744125  14.76295948  63.23209763
H    18.60999870  15.78999996  64.66000366
H    17.63000107  14.57999992  59.92000198
H    20.03000069  14.30999947  59.47000122
H    22.30999947  14.85000038  60.17000198
H    21.11999893  15.57999992  64.19000244
H    12.79000092  15.15999985  63.99000168
H    23.97000122  15.76000023  61.72999954
H    23.40999985  16.46000099  63.18000031
S    12.30000019  13.93000031  59.29000092
C     9.59999943  13.71999931  59.85000229
C    10.81999969  14.22000027  60.24000168
C    11.10000038  14.59000015  61.59000015
C    10.03999901  14.72000027  62.45999908
C     8.71000004  14.42000008  62.05999756
C     7.62000036  14.60000038  62.95999908
C     6.38000011  14.25000000  62.50000000
C     6.15999985  13.59000015  61.25999832
C     7.20000029  13.47000027  60.37000275
C     8.52999973  13.81000042  60.77000046
C    12.51999950  14.57999992  61.90000153
C    13.27000046  14.26000023  60.73999786
C    14.63999939  14.42999935  60.54999924
C     4.76000023  13.17000008  60.86000061
H     4.33324099  13.76035023  60.04916000
H     9.52999973  13.32999992  58.82999802
H    10.29999924  14.85999966  63.50999832
H     7.65999985  14.96000099  63.97999573
H     5.59999990  14.42999935  63.22999954
H     7.11999989  13.15999985  59.33000183
H    15.11999989  14.42000008  59.58000183
H     4.13000011  12.97999954  61.73999786
H     4.75000000  12.17000008  60.40999985
S    16.57999992  15.86999989  57.65999603
C    19.29999924  15.97000027  56.97000122
C    18.01000023  15.60999966  56.63999939
C    17.61000061  15.14999962  55.34999847
C    18.60000038  15.14000034  54.38000107
C    19.95000076  15.38000011  54.71000290
C    20.95999908  15.26000023  53.70999908
C    22.26000023  15.55999947  54.03999710
C    22.65999985  16.04999924  55.31000137
C    21.68999863  16.20000076  56.27999878
C    20.32999992  15.90000057  55.98999786
C    16.15999985  15.14999962  55.20000076
C    15.43000031  15.50000000  56.36000061
C    14.04000092  15.52000046  56.45000076
C    24.11999893  16.26000023  55.63000107
H    24.35492706  15.65488338  56.50563812
H    19.45000076  16.40999985  57.95000076
H    18.43000031  14.65999985  53.41999817
H    20.59000015  14.98999977  52.71999741
H    22.98999977  15.24000072  53.29999924
H    21.90999985  16.61999893  57.25000000
H    13.53000069  15.73999977  57.38999939
H    24.77000046  16.10999870  54.75999832
H    24.28999901  17.30999947  55.89000320
S    12.98999977  14.37999916  52.80000305
C    10.31000042  14.06999969  53.47000122
C    11.56000042  14.48999977  53.83999634
C    11.85999966  14.98000050  55.14999771
C    10.78999996  15.11999989  56.02000427
C     9.48999977  14.67000008  55.70999908
C     8.36999989  14.82999992  56.58000183
C     7.09999990  14.42999935  56.25000000
C     6.89000034  13.82999992  54.98000336
C     7.92000008  13.73000050  54.06999969
C     9.22000027  14.22000027  54.36999893
C    13.28999996  15.22999954  55.31000137
C    14.02999973  14.92000008  54.13999939
C    15.40999985  14.86999989  54.05000305
C     5.49000025  13.42000008  54.58000183
H     5.10587645  14.07443237  53.79752731
H    10.13000011  13.64999962  52.49000168
H    10.90000057  15.64000034  56.97000122
H     8.50000000  15.40999985  57.49000168
H     6.32999992  14.75999928  56.93000031
H     7.82000017  13.19000053  53.13000107
H    15.90000057  14.68999958  53.09999847
H     4.76000023  13.35999966  55.40999985
H     5.51000023  12.36999989  54.25000000
