96

S    16.20000076  15.22999954  64.52000427
C    18.93000031  15.34999943  63.88000107
C    17.64000130  15.07999992  63.50000000
C    17.26000023  14.89999962  62.12999725
C    18.29000092  14.75000000  61.23000336
C    19.64999962  14.82999992  61.60999680
C    20.72999954  15.03999901  60.68999863
C    22.01000023  15.21999931  61.13999939
C    22.32999992  15.26999950  62.51999664
C    21.31999969  15.31000042  63.46000290
C    20.00000000  15.15999985  62.95999908
C    15.80999947  14.82999992  61.95999908
C    15.08999920  15.18000031  63.13999939
C    13.71000099  15.36000061  63.18000031
C    23.75000000  15.64000034  62.87000275
H    24.14126396  14.95706940  63.62406921
H    19.17000008  15.57000065  64.91999817
H    18.00000000  14.86999989  60.18000031
H    20.52000046  14.88000011  59.64000320
H    22.81999969  15.26000023  60.40999985
H    21.47000122  15.60999966  64.48999786
H    13.12999916  15.59999943  64.06999969
H    24.40000153  15.65999985  61.98999786
H    23.72999954  16.63999939  63.34000015
S    12.69999981  14.09000015  59.52000046
C    10.00000000  13.92000008  60.31000137
C    11.28999901  14.28999996  60.59000015
C    11.57999992  14.78999996  61.90000153
C    10.57000065  15.01000023  62.81999969
C     9.23999977  14.61999989  62.56000137
C     8.19000053  14.91000080  63.47000122
C     6.86999989  14.67000008  63.16999817
C     6.61000013  14.04000092  61.91999817
C     7.59999990  13.69999981  61.02000427
C     8.96000004  14.04000092  61.26999664
C    13.00000000  15.10000038  62.01000214
C    13.71000099  14.72000027  60.84000015
C    15.07999992  14.50000000  60.81999969
C     5.19999981  13.63999939  61.59000015
H     4.80147982  14.20931435  60.75025940
H     9.85999966  13.43999958  59.34000015
H    10.72999954  15.44999981  63.80000305
H     8.43000031  15.29999924  64.45999908
H     6.09000015  14.80999947  63.89999771
H     7.23999977  13.30999947  60.06999969
H    15.47999954  14.02999973  59.92000198
H     4.55999994  13.82999992  62.47000122
H     5.19999981  12.55000019  61.46999741
S    13.25000000  11.92000008  56.11999893
C    10.57999992  11.51000023  56.72999954
C    11.89000034  11.38000011  57.11999893
C    12.25000000  10.88999939  58.41999817
C    11.28000069  10.50000000  59.33000183
C     9.92999935  10.50000000  58.92000198
C     8.82999992  10.06000042  59.72999954
C     7.53000021  10.21999931  59.33000183
C     7.22000027  10.88000107  58.11000061
C     8.23999977  11.26000023  57.27000427
C     9.59999943  11.05999947  57.63999939
C    13.69999981  10.97000027  58.56999969
C    14.35999966  11.56000042  57.45999908
C    15.72000027  11.84000015  57.48000336
C     5.78999996  11.30000019  57.84000015
H     5.24698257  10.61408329  57.18980789
H    10.32999992  11.77999973  55.70000076
H    11.51999950  10.26000023  60.35999680
H     9.01000023   9.47000027  60.61999893
H     6.70000029   9.89000034  59.93999863
H     8.00000000  11.68000031  56.30000305
H    16.21000099  12.38999939  56.69000244
H     5.23000002  11.40999985  58.77999878
H     5.86000013  12.28999996  57.36000061
S    16.87000084  10.59999943  61.11000061
C    19.55000114  10.88000107  60.58000183
C    18.27000046  11.02000046  60.11000061
C    17.84000015  11.57999992  58.86000061
C    18.81000137  12.13999939  58.06000137
C    20.17000008  11.97000027  58.43000031
C    21.18999863  12.35000038  57.50999832
C    22.50000000  12.31999969  57.93000031
C    22.88999939  11.77999973  59.18000031
C    21.90999985  11.36999989  60.06000137
C    20.52999878  11.43000031  59.71000290
C    16.39000130  11.56000042  58.68000031
C    15.75000000  10.95000076  59.78000259
C    14.39000034  10.65999985  59.75000000
C    24.34999847  11.46000004  59.36999893
H    24.65397835  11.67207813  60.39504623
H    19.72999954  10.36999893  61.52000046
H    18.56999969  12.53000069  57.06999969
H    20.94000053  12.74000072  56.52999878
H    23.26000023  12.60000038  57.19999695
H    22.25000000  10.86999989  60.96000290
H    13.83999920  10.31999969  60.61999893
H    24.96000099  11.98999977  58.62999725
H    24.54999924  10.39999962  59.20000076
