96

S    15.80000019  15.44999981  64.41000366
C    18.45999908  15.71000004  63.55999756
C    17.18000031  15.25000000  63.30999756
C    16.77000046  14.65000057  62.08000183
C    17.77000046  14.30999947  61.18999863
C    19.11000061  14.68999958  61.43000031
C    20.15999985  14.30999947  60.54000092
C    21.47000122  14.68999958  60.70999908
C    21.81999969  15.31999969  61.93000031
C    20.85000038  15.65999985  62.84999847
C    19.45999908  15.47000027  62.58999634
C    15.31999969  14.65999985  61.88999939
C    14.68000031  15.01000023  63.11000061
C    13.30000019  15.18000031  63.18999863
C    23.25000000  15.72000027  62.18000031
H    23.74940872  15.14211464  62.95764923
H    18.71000099  16.02000046  64.56999969
H    17.46999931  13.99000072  60.20000076
H    19.96000099  13.86000061  59.56999969
H    22.13999939  14.45000076  59.88999939
H    21.30000114  16.15999985  63.69999695
H    12.77999973  15.31999969  64.13000488
H    23.68999863  15.69000053  61.17000198
H    23.08000183  16.75000000  62.51999664
S    12.02999973  14.13000011  59.52999878
C     9.39000034  14.01000023  60.34000015
C    10.69000053  14.30999947  60.68000031
C    11.07999992  14.78999996  61.97000122
C    10.11999989  14.88000011  62.95999908
C     8.76000023  14.60999966  62.70000076
C     7.71000004  14.63000107  63.67000198
C     6.42000008  14.25000000  63.37999725
C     6.07999992  13.89000034  62.04999924
C     7.07999992  13.83999920  61.10000229
C     8.42000008  14.26000023  61.35000229
C    12.53000069  14.88000011  62.05999756
C    13.15000057  14.42000008  60.87999725
C    14.52999973  14.26000023  60.80999756
C     4.65000010  13.57999992  61.65999985
H     4.32293653  14.18435669  60.81389999
H     9.02999973  13.63999939  59.38999939
H    10.32999992  15.00000000  64.01999664
H     7.99000025  15.01000023  64.65000153
H     5.72000027  14.42999935  64.19000244
H     6.98999977  13.45000076  60.10000229
H    15.11000061  14.09999943  59.91000366
H     4.01999998  13.64999962  62.55000305
H     4.65000010  12.51999950  61.36000061
S    15.86999989  15.67999935  57.88999939
C    18.61999893  15.77000046  57.35000229
C    17.34000015  15.48999977  56.90999985
C    17.05999947  14.93999958  55.61999893
C    18.09000015  14.84000015  54.71000290
C    19.42000008  14.98999977  55.19000244
C    20.45000076  15.07999992  54.22000122
C    21.70999908  15.46000004  54.61999893
C    21.97000122  15.88000107  55.93999863
C    21.01000023  15.88000107  56.93000031
C    19.71999931  15.44999981  56.52000046
C    15.62999916  14.80000019  55.38999939
C    14.86999989  15.26999950  56.49000168
C    13.48999977  15.46000004  56.55000305
C    23.34000015  16.47999954  56.23000336
H    23.86478615  15.75664616  56.85407257
H    18.78999901  16.18999863  58.34000015
H    17.81999969  14.80999947  53.66000366
H    20.20999908  15.01999950  53.15999985
H    22.42000198  15.57999992  53.80000305
H    21.18999863  16.34000015  57.90000153
H    13.07000065  15.85000038  57.47000122
H    23.81000137  16.69000053  55.26000214
H    23.09000015  17.43999863  56.68000031
S    12.34000015  14.32999992  52.93000031
C     9.63999939  14.55000019  53.61999893
C    10.95999908  14.73000050  53.96999741
C    11.32999992  15.14000034  55.28999710
C    10.36999893  15.31000042  56.25999832
C     9.00000000  15.13000011  55.96000290
C     7.94000053  15.07999992  56.90999985
C     6.61000013  14.94999981  56.59000015
C     6.25999975  14.67000008  55.24000168
C     7.26999998  14.52999973  54.31999969
C     8.64000034  14.77000046  54.61000061
C    12.79000092  15.10000038  55.38999939
C    13.48000050  14.63999939  54.25000000
C    14.86999989  14.47999954  54.26000214
C     4.86000013  14.25000000  54.84000397
H     4.48210478  14.82040787  53.99151611
H     9.19999981  14.27000046  52.67000198
H    10.54999924  15.51000023  57.31999969
H     8.27999973  15.14000034  57.94000244
H     5.88999987  15.06000042  57.39999771
H     6.97000027  14.26000023  53.30999756
H    15.36000061  14.28999996  53.30999756
H     4.21000004  14.39000034  55.70999908
H     4.94000006  13.17000008  54.65999985
