96

S    16.21000099  15.05000019  64.40000153
C    18.90999985  15.26000023  63.69999695
C    17.64999962  14.80999947  63.40000153
C    17.25000000  14.34000015  62.11000061
C    18.18000031  14.44000053  61.09000397
C    19.51000023  14.85999966  61.35000229
C    20.52000046  14.75999928  60.35999680
C    21.84999847  14.77000046  60.70999908
C    22.19000053  15.13000011  62.04000092
C    21.27000046  15.43000031  63.02000046
C    19.89999962  15.21999931  62.69000244
C    15.80999947  14.25000000  61.88999939
C    15.11999989  14.65000057  63.06000137
C    13.73000050  14.78000069  63.13999939
C    23.65999985  15.22999954  62.37999725
H    24.00883675  14.66046810  63.24141693
H    19.17000008  15.59999943  64.70999908
H    18.02000046  14.14000034  60.06000137
H    20.27000046  14.45000076  59.34999847
H    22.60999870  14.44000053  60.00999832
H    21.40999985  15.67999935  64.06999969
H    13.30000019  15.11000061  64.08000183
H    24.26000214  14.98000050  61.49000168
H    23.94000053  16.27000046  62.58999634
S    12.61999989  13.88000011  59.43000031
C     9.89000034  13.86000061  60.08999634
C    11.18999958  14.11000061  60.45999908
C    11.56000042  14.42999935  61.81000137
C    10.54999924  14.55000019  62.74000168
C     9.21000004  14.22000027  62.43000031
C     8.14999962  14.32999992  63.37999725
C     6.83000040  14.06000042  63.11000061
C     6.53999996  13.76999950  61.76000214
C     7.50000000  13.63999939  60.77999878
C     8.86999989  13.93000031  61.05999756
C    13.00000000  14.56999969  61.97000122
C    13.71000099  14.15999985  60.80999756
C    15.06999969  13.89000034  60.76000214
C     5.09999990  13.36999989  61.56000137
H     4.76554203  13.60483170  60.54951096
H     9.68999958  13.43999958  59.09999847
H    10.81999969  14.70999908  63.77999878
H     8.40999985  14.77000046  64.34999847
H     6.00000000  14.22999954  63.79000092
H     7.23000002  13.38999939  59.75999832
H    15.55999947  13.38000107  59.93999863
H     4.51999998  13.94999981  62.28000259
H     5.12000036  12.30999947  61.84000015
S    12.61000061  11.72000027  56.25999832
C     9.92000008  11.36000061  57.15000153
C    11.28000069  11.23000050  57.32999802
C    11.75000000  10.55999947  58.50000000
C    10.85999966   9.94000053  59.36000061
C     9.46000004  10.07999992  59.22000122
C     8.51000023   9.38000011  60.00999832
C     7.16000032   9.35000038  59.75000000
C     6.70000029  10.22999954  58.74000168
C     7.59000015  10.92000008  57.94000244
C     9.00000000  10.86999989  58.11000061
C    13.20000076  10.65000057  58.60000229
C    13.81999969  11.23000050  57.45999908
C    15.19000053  11.43000031  57.36000061
C     5.21000004  10.26999950  58.50000000
H     4.89026451  10.42631531  57.46974182
H     9.50000000  11.72000027  56.20999908
H    11.21000099   9.23999977  60.11000061
H     8.82000065   8.67999935  60.79000092
H     6.48000002   8.69999981  60.28999710
H     7.28999996  11.46999931  57.04999924
H    15.57999992  12.03999996  56.55000305
H     4.81999969   9.27999973  58.75000000
H     4.76000023  11.03999996  59.13999939
S    16.53000069  10.19000053  60.84000015
C    19.19999886  10.55999947  60.18000031
C    17.87999916  10.73999977  59.82999802
C    17.43999863  11.23000050  58.55999756
C    18.44000053  11.73999977  57.75000000
C    19.79999924  11.59000015  58.09999847
C    20.78000069  12.13000107  57.22000122
C    22.11999893  12.05000019  57.52999878
C    22.56000137  11.30000019  58.66000366
C    21.63999939  10.78999996  59.54000092
C    20.25000000  10.98000050  59.33000183
C    16.00000000  11.02000046  58.41999817
C    15.34000015  10.52000046  59.56999969
C    14.00000000  10.15999985  59.64000320
C    24.02000046  11.17000008  59.02000046
H    24.26195908  11.31232834  60.07323456
H    19.38999939  10.05000019  61.11999893
H    18.09000015  12.07999992  56.77999878
H    20.53999901  12.56000042  56.25999832
H    22.73999977  12.50000000  56.76000214
H    21.97999954  10.32999992  60.47000122
H    13.71000099   9.52999973  60.47999954
H    24.64999962  11.84000015  58.41999817
H    24.34000015  10.18000031  58.66000366
