96

S    15.98999977  15.27999973  64.56999969
C    18.71000099  15.47999954  63.81000137
C    17.42000008  15.11000061  63.52000427
C    17.05000114  14.51000023  62.28000259
C    18.05999947  14.42000008  61.32999802
C    19.37999916  14.85999966  61.53999710
C    20.40999985  14.81999969  60.54999924
C    21.65999985  15.31000042  60.83000183
C    22.03000069  15.86999989  62.09000015
C    21.04000092  15.90999985  63.04000092
C    19.70000076  15.48999977  62.78999710
C    15.60999966  14.55999947  62.11999893
C    14.85000038  14.96999931  63.25000000
C    13.50000000  15.29000092  63.27999878
C    23.45999908  16.15999985  62.49000168
H    23.87821579  15.35901070  63.09960175
H    18.96999931  15.81999969  64.80999756
H    17.81999969  14.06999969  60.33000183
H    20.13999939  14.35999966  59.59999847
H    22.50999832  15.18000031  60.15999603
H    21.34000015  16.13999939  64.05999756
H    12.98999977  15.55999947  64.19999695
H    24.06999969  16.18999863  61.58000183
H    23.54999924  17.13000107  62.98999786
S    12.53999901  14.11000061  59.54999924
C     9.82999992  14.11999893  60.06000137
C    11.07999992  14.45000076  60.51000214
C    11.36999989  14.88999939  61.84999847
C    10.29000092  14.98999977  62.70999908
C     8.98999977  14.63999939  62.28000259
C     7.95000029  14.67000008  63.25000000
C     6.70000029  14.34000015  62.78999710
C     6.38000011  13.81000042  61.51000214
C     7.42999983  13.71000099  60.63000107
C     8.71000004  14.23999977  60.93000031
C    12.79000092  14.94999981  62.11999893
C    13.50999928  14.60000038  60.94999695
C    14.89999962  14.51000023  60.90999985
C     5.00999975  13.27999973  61.12999725
H     4.55427551  13.92086220  60.37520599
H     9.88000011  13.68999958  59.06000137
H    10.40999985  15.36000061  63.73000336
H     8.21000004  15.25000000  64.13000488
H     5.96000004  14.29999924  63.57999802
H     7.30999994  13.28999996  59.62999725
H    15.52999973  14.28999996  60.05000305
H     4.33999968  13.42000008  61.97999954
H     5.07999992  12.20999908  60.89000320
S    12.81000042  11.52999973  56.51000214
C    10.13000011  11.02000046  57.22999954
C    11.46999931  10.93999958  57.51999664
C    11.96000004  10.47000027  58.77999878
C    11.02000046  10.03000069  59.68999863
C     9.63000011  10.21999931  59.52000046
C     8.64000034  10.00000000  60.51000214
C     7.30999994   9.98000050  60.17000198
C     6.83000040  10.46000004  58.92000198
C     7.78999996  10.85999966  58.02000046
C     9.19000053  10.77000046  58.26000214
C    13.40000057  10.65000057  58.94000244
C    13.97999954  11.28000069  57.81000137
C    15.31000042  11.69000053  57.84000015
C     5.36000013  10.46000004  58.57999802
H     5.11222553  10.09895706  57.58182144
H     9.70000076  11.43000031  56.31999969
H    11.26000023   9.81000042  60.72999954
H     9.01000023   9.71000004  61.49000168
H     6.65999985   9.43000031  60.84999847
H     7.48000050  11.30000019  57.08000183
H    15.76000023  12.10000038  56.93999863
H     4.90000010   9.82999992  59.34000015
H     4.96000004  11.49000072  58.61999893
S    16.72999954  10.13000011  61.23000336
C    19.38999939  10.86999989  60.61999893
C    18.04999924  10.90000057  60.31999969
C    17.52000046  11.40999985  59.09999847
C    18.38999939  11.97000027  58.18000031
C    19.78000069  11.95000076  58.43000031
C    20.69999886  12.53000069  57.51999664
C    22.04999924  12.60000038  57.78999710
C    22.59000015  12.05999947  58.99000168
C    21.70999908  11.39000034  59.79000092
C    20.29000092  11.38000011  59.65000153
C    16.06999969  11.31999969  58.95000076
C    15.50000000  10.60999966  60.05000305
C    14.15999985  10.25000000  60.05000305
C    24.00000000  12.39999962  59.41999817
H    24.32684135  11.73921299  60.22288895
H    19.73999977  10.39000034  61.52999878
H    17.93000031  12.30999947  57.25000000
H    20.38000107  13.09000015  56.65000153
H    22.63000107  13.23999977  57.12999725
H    22.04999924  10.93999958  60.72000122
H    13.76000023   9.48999977  60.70000076
H    24.04000092  13.43999958  59.79000092
H    24.71999931  12.35999966  58.59000397
