96

S    15.31000042  15.48999977  64.62999725
C    17.97000122  15.73999977  63.83999634
C    16.69000053  15.34000015  63.53000259
C    16.29999924  14.80999947  62.25999832
C    17.23999977  14.45000076  61.31999969
C    18.55999947  14.85000038  61.60999680
C    19.55000114  14.51000023  60.65000153
C    20.85000038  14.94999981  60.81999969
C    21.19999886  15.77999973  61.90999985
C    20.29000092  15.98000050  62.93000031
C    18.94000053  15.53999996  62.81999969
C    14.85000038  14.70999908  62.15999985
C    14.15999985  15.06999969  63.34000015
C    12.79000092  15.26999950  63.40999985
C    22.63000107  16.21000099  62.08000183
H    23.23016357  15.58840179  62.74446869
H    18.30000114  16.02000046  64.83000183
H    17.00000000  14.00000000  60.35999680
H    19.19000053  14.14000034  59.68999863
H    21.61000061  14.70000076  60.07999802
H    20.58000183  16.45000076  63.87000275
H    12.41000080  15.59000015  64.38000488
H    23.18000031  16.29999924  61.12999725
H    22.56999969  17.15999985  62.62000275
S    11.61999893  13.89999962  59.85000229
C     8.90999985  14.22000027  60.51000214
C    10.22999954  14.27000046  60.89000320
C    10.60999966  14.73000050  62.18999863
C     9.63999939  14.96000099  63.15000153
C     8.27000046  14.80999947  62.84999847
C     7.31999969  14.98000050  63.89999771
C     6.00000000  14.78999996  63.54000092
C     5.65999985  14.40999985  62.22000122
C     6.57000017  14.11999893  61.23000336
C     7.92000008  14.47999954  61.49000168
C    12.05000019  14.86999989  62.29000092
C    12.72999954  14.42999935  61.11999893
C    14.11999893  14.40000057  61.00000000
C     4.19999981  14.14000034  61.95000076
H     3.88843942  14.36658955  60.93035126
H     8.73999977  13.73000050  59.54999924
H     9.84000015  15.39999962  64.13000488
H     7.68000031  15.19999981  64.89999390
H     5.19999981  14.78000069  64.27000427
H     6.38000011  13.81000042  60.20000076
H    14.60999966  14.07999992  60.08999634
H     3.63000011  14.82999992  62.56999969
H     3.98000002  13.12999916  62.30999756
S    12.79000092  12.02999973  56.55000305
C    10.08999920  11.44999981  57.29000092
C    11.44999981  11.36999989  57.50000000
C    11.90000057  10.78999996  58.73000336
C    10.97000027  10.34000015  59.65000153
C     9.56999969  10.43000031  59.43999863
C     8.53999996   9.94000053  60.30000305
C     7.20000029  10.08999920  60.05000305
C     6.76999998  10.72000027  58.85000229
C     7.72000027  11.32999992  58.06999969
C     9.11000061  11.05000019  58.22999954
C    13.35000038  10.85999966  58.87000275
C    13.96000004  11.51999950  57.77999878
C    15.31999969  11.82000065  57.72999573
C     5.28999996  10.85999966  58.61999893
H     4.99121714  10.34068680  57.70942688
H     9.73999977  11.97999954  56.40999603
H    11.31000042   9.94000053  60.59999847
H     8.92000008   9.35999966  61.12999725
H     6.48999977   9.77000046  60.80999756
H     7.50000000  11.82000065  57.12999725
H    15.72000027  12.13000107  56.77000046
H     4.77999973  10.44999981  59.50000000
H     5.12000036  11.94000053  58.72000122
S    16.75000000  10.24000072  61.04000092
C    19.37000084  10.73999977  60.31000137
C    18.02999878  11.00000000  60.08999634
C    17.54999924  11.67000008  58.90999603
C    18.46999931  12.07999992  57.95999908
C    19.85999870  11.89000034  58.18000031
C    20.86000061  12.38999939  57.29999924
C    22.20000076  12.15000057  57.51999664
C    22.65000153  11.69000053  58.79000092
C    21.68000031  11.28000069  59.68000031
C    20.30999947  11.17000008  59.34000015
C    16.10999870  11.51999950  58.83999634
C    15.50000000  10.77000046  59.87999725
C    14.14999962  10.47999954  59.95999908
C    24.04999924  11.21999931  59.10999680
H    24.41397858  11.57684135  60.07347107
H    19.70000076  10.36000061  61.26999664
H    18.15000153  12.64000034  57.09000015
H    20.56999969  12.86000061  56.37000275
H    22.96999931  12.13000107  56.75000000
H    22.01999855  11.00000000  60.68000031
H    13.61999989  10.18000031  60.86000061
H    24.72999954  11.54999924  58.30999756
H    24.06999969  10.13000011  59.22000122
