96

S    15.62000084  15.62000084  64.51000214
C    18.27999878  16.09000015  63.70999908
C    17.04000092  15.53999996  63.46000290
C    16.73999977  15.01000023  62.15999985
C    17.77000046  14.86999989  61.25000000
C    19.09000015  15.29999924  61.51000214
C    20.19000053  15.15999985  60.61999893
C    21.42999840  15.65999985  60.94999695
C    21.70000076  16.13999939  62.25999832
C    20.66999817  16.23999977  63.15999985
C    19.32999992  15.90999985  62.78999710
C    15.29999924  14.91000080  61.97000122
C    14.56999969  15.26999950  63.13000107
C    13.17999935  15.39000034  63.11999893
C    23.12000084  16.46999931  62.63000107
H    23.47694206  15.92031002  63.50093842
H    18.38999939  16.69000053  64.61999512
H    17.64000130  14.28999996  60.33000183
H    20.06000137  14.84000015  59.59000015
H    22.22999954  15.59999943  60.20999908
H    20.89999962  16.63999939  64.15000153
H    12.71999931  15.54999924  64.08999634
H    23.72999954  16.07999992  61.79999924
H    23.19000053  17.56999969  62.57999802
S    12.05000019  14.06999969  59.54999924
C     9.34000015  14.01000023  60.24000168
C    10.64000034  14.23999977  60.61000061
C    11.02000046  14.78999996  61.88000107
C    10.03000069  15.01999950  62.81999969
C     8.67000008  14.70999908  62.52999878
C     7.67000008  14.92000008  63.50999832
C     6.34000015  14.75000000  63.18000031
C     6.00000000  14.18000031  61.93000031
C     6.96000004  13.90999985  60.97999954
C     8.32999992  14.22999954  61.22000122
C    12.44999981  15.03999901  61.97999954
C    13.15000057  14.63000107  60.83000183
C    14.53999996  14.68999958  60.81999969
C     4.55999994  13.83999920  61.60999680
H     4.20375967  14.38148499  60.73365021
H     9.02999973  13.60000038  59.27999878
H    10.29000092  15.39999962  63.80000305
H     7.94000053  15.29000092  64.50000000
H     5.61999989  14.92000008  63.96999741
H     6.70000029  13.32999992  60.10000229
H    15.05000019  14.65000057  59.86000061
H     3.98999977  14.06000042  62.51999664
H     4.38000011  12.76999950  61.45000076
S    16.57999992  16.21999931  58.02999878
C    19.27999878  16.46000099  57.15000153
C    17.97000122  16.13000107  56.91999817
C    17.61000061  15.57999992  55.65000153
C    18.51000023  15.26000023  54.65999985
C    19.85999870  15.67000008  54.84000397
C    20.89999962  15.32999992  53.94000244
C    22.21999931  15.52999973  54.26000214
C    22.56000137  16.25000000  55.43000031
C    21.55999947  16.72999954  56.24000168
C    20.20000076  16.32999992  56.07999802
C    16.20000076  15.24000072  55.59000015
C    15.48999977  15.73999977  56.72000122
C    14.09999943  15.80000019  56.77000046
C    24.04000092  16.52000046  55.65999985
H    24.45952225  15.78761673  56.34972000
H    19.57999992  16.90999985  58.09000015
H    18.19000053  14.65999985  53.81999969
H    20.62999916  14.85999966  53.00000000
H    22.98000145  15.15999985  53.57999802
H    21.71999931  17.34000015  57.12999725
H    13.60000038  16.10000038  57.69000244
H    24.56000137  16.62999916  54.69999695
H    24.03000069  17.43999863  56.25999832
S    13.02999973  14.45000076  53.18999863
C    10.36999893  14.70000076  53.75000000
C    11.64999962  15.01999950  54.13999939
C    11.94000053  15.43000031  55.47999954
C    10.90999985  15.64000034  56.38000107
C     9.57999992  15.34000015  56.00000000
C     8.52999973  15.31999969  56.95999908
C     7.25000000  14.96000099  56.62000275
C     6.96000004  14.61999989  55.27000046
C     8.01000023  14.28999996  54.43999863
C     9.31999969  14.77000046  54.69999695
C    13.38999939  15.43000031  55.63000107
C    14.11000061  14.86999989  54.54000092
C    15.48999977  14.80000019  54.45999908
C     5.56999969  14.27000046  54.80999756
H     5.14324045  14.86035156  53.99915695
H    10.31000042  14.13000011  52.81999969
H    11.18000031  16.02000046  57.36999893
H     8.69999981  15.67000008  57.97999954
H     6.53999996  14.86999989  57.43999863
H     7.83999968  13.89000034  53.43999863
H    15.92000008  14.47000027  53.52000427
H     4.81999969  14.45000076  55.59999847
H     5.55000019  13.21000004  54.51000214
