96

S    16.02000046  14.85000038  64.41000366
C    18.72999954  14.92000008  63.69999695
C    17.43000031  14.70999908  63.34000015
C    17.13000107  14.44000053  61.95999908
C    18.07999992  14.35999966  60.97000122
C    19.42000008  14.65000057  61.31999969
C    20.52000046  14.57999992  60.41999817
C    21.80000114  14.82999992  60.84000015
C    22.04999924  15.34000015  62.15000153
C    21.02000046  15.43000031  63.04999924
C    19.72999954  14.96000099  62.70000076
C    15.69000053  14.22000027  61.86999893
C    14.94999981  14.40999985  63.06000137
C    13.56999969  14.47000027  63.18000031
C    23.45999908  15.77000046  62.50000000
H    23.78030777  15.26462555  63.41109848
H    18.98999977  15.31999969  64.68000031
H    17.84000015  14.14999962  59.93000031
H    20.42000008  14.17000008  59.41999817
H    22.60999870  14.70000076  60.13000107
H    21.18999863  15.73999977  64.08000183
H    13.09000015  14.80999947  64.08999634
H    24.17000008  15.47999954  61.70999908
H    23.59999847  16.84999847  62.63999939
S    12.55000019  13.73000050  59.40000153
C     9.80000019  13.85000038  60.07999802
C    11.13000011  13.97999954  60.43000031
C    11.43000031  14.28999996  61.79000092
C    10.36999893  14.53999996  62.63999939
C     9.00000000  14.29999924  62.37999725
C     7.96000004  14.37999916  63.36000061
C     6.67000008  14.14999962  62.94000244
C     6.37000036  13.90999985  61.56999969
C     7.36999989  13.78999901  60.63000107
C     8.73000050  13.94999981  61.00999832
C    12.86999893  14.19999981  62.00000000
C    13.60999966  13.97999954  60.80999756
C    14.98999977  13.99000072  60.68000031
C     4.97000027  13.61999989  61.11000061
H     4.78488255  13.94039631  60.08473206
H     9.61000061  13.43999958  59.09000015
H    10.69000053  14.70999908  63.67000198
H     8.17000008  14.60999966  64.40000153
H     5.89999962  14.19999981  63.69999695
H     7.23000002  13.69999981  59.55999756
H    15.43000031  14.01999950  59.68000031
H     4.25000000  14.14999962  61.75000000
H     4.81999969  12.53000069  61.18999863
S    16.57999992  15.29999924  57.94000244
C    19.25000000  15.65000057  57.23999786
C    17.98999977  15.26999950  56.86000061
C    17.68000031  15.13000011  55.47000122
C    18.64999962  15.19000053  54.48999786
C    20.00000000  15.43000031  54.86999893
C    21.14000130  15.39999962  54.02000046
C    22.40999985  15.67999935  54.43999863
C    22.57999802  16.15999985  55.77000046
C    21.55999947  16.10999870  56.69000244
C    20.26000023  15.76000023  56.25000000
C    16.23999977  14.98000050  55.27000046
C    15.55999947  15.03999901  56.51000214
C    14.18000031  15.10000038  56.63999939
C    23.97000122  16.61999893  56.17000198
H    24.29730225  16.09347343  57.06652069
H    19.30999947  15.93999958  58.29000092
H    18.45999908  14.73999977  53.52000427
H    20.88999939  15.21000004  52.97999954
H    23.19999886  15.65999985  53.68999863
H    21.61000061  16.52000046  57.70000076
H    13.60999966  15.32999992  57.54000092
H    24.65999985  16.34000015  55.37000275
H    23.88999939  17.71000099  56.24000168
S    13.05999947  14.55000019  52.84999847
C    10.31999969  14.63000107  53.47999954
C    11.63000011  14.65000057  53.89999771
C    12.02000046  14.94999981  55.25000000
C    11.03999996  15.03999901  56.22000122
C     9.68000031  14.92000008  55.81999969
C     8.64999962  14.91000080  56.79999924
C     7.34000015  14.80999947  56.39999771
C     6.98999977  14.47000027  55.06000137
C     7.96999979  14.32000065  54.10999680
C     9.28999996  14.70000076  54.45000076
C    13.45999908  14.96000099  55.45000076
C    14.15999985  14.80000019  54.22000122
C    15.53999996  14.73000050  54.09000015
C     5.64000034  13.82999992  54.80999756
H     5.20692015  14.26308060  53.90834045
H    10.15999985  14.37999916  52.43999863
H    11.40999985  15.08999920  57.23999786
H     8.80999947  14.98000050  57.88000107
H     6.51000023  14.80000019  57.09000015
H     7.73999977  13.81000042  53.18000031
H    16.03000069  14.57999992  53.13000107
H     4.94999981  13.90999985  55.65000153
H     5.77000046  12.75000000  54.64000320
