96

S    16.36000061  15.76000023  64.11000061
C    19.06999969  15.59999943  63.31999969
C    17.72999954  15.39999962  63.04999924
C    17.35000038  14.94999981  61.75000000
C    18.31999969  14.89999962  60.77000046
C    19.70000076  14.98999977  61.07999802
C    20.72000122  15.06999969  60.08999634
C    22.04000092  15.29000092  60.40000153
C    22.43000031  15.64000034  61.72000122
C    21.47000122  15.72000027  62.70999908
C    20.13000107  15.36999893  62.41000366
C    15.90000057  14.80999947  61.65000153
C    15.24000072  15.27999973  62.81999969
C    13.85000038  15.29999924  62.84000015
C    23.87000084  15.95000076  62.04999924
H    24.28214645  15.33888435  62.85297775
H    19.40000153  16.18000031  64.18000031
H    18.09999847  14.88000011  59.71000290
H    20.40999985  15.01000023  59.05000305
H    22.77000046  15.44000053  59.61999893
H    21.71999931  16.10999870  63.68999863
H    13.34000015  15.65000057  63.73000336
H    24.54000092  15.84000015  61.18999863
H    23.95999908  16.97000122  62.45999908
S    12.75000000  14.19999981  59.23999786
C    10.06000042  13.96999931  59.89999771
C    11.31999969  14.37999916  60.27999878
C    11.65999985  14.77000046  61.60999680
C    10.65999985  14.80000019  62.56999969
C     9.31999969  14.53999996  62.18999863
C     8.27999973  14.45000076  63.15999985
C     6.98999977  14.18000031  62.77999878
C     6.70000029  13.73000050  61.46999741
C     7.71000004  13.66000080  60.52999878
C     9.02000046  14.09999943  60.86000061
C    13.10999966  14.78999996  61.77000046
C    13.83999920  14.34999943  60.63000107
C    15.21999931  14.37000084  60.51000214
C     5.23000002  13.67000008  61.11999893
H     4.88063145  14.33308792  60.32857132
H     9.85000038  13.53999996  58.93000031
H    10.97000027  14.85999966  63.60000229
H     8.50000000  14.73999977  64.19000244
H     6.14000034  14.37000084  63.43999863
H     7.40999985  13.42000008  59.51000214
H    15.69000053  13.96000004  59.61999893
H     4.75000000  14.04000092  62.02999878
H     5.00000000  12.61999989  60.90999985
S    16.35000038  15.84000015  57.69000244
C    19.04999924  16.18999863  56.88000107
C    17.75000000  15.82999992  56.59999847
C    17.36999893  15.26000023  55.34000015
C    18.36000061  15.10000038  54.38999939
C    19.71999931  15.42000008  54.61999893
C    20.72999954  15.29999924  53.61999893
C    22.04000092  15.53999996  53.99000168
C    22.42000198  15.98000050  55.27999878
C    21.42999840  16.15999985  56.22000122
C    20.05000114  15.98999977  55.90000153
C    15.93000031  15.10000038  55.19000244
C    15.21999931  15.46000004  56.37000275
C    13.83999920  15.53999996  56.42000198
C    23.84000015  16.35000038  55.65000153
H    24.16025352  15.72372627  56.48265839
H    19.29999924  16.39999962  57.91999817
H    18.07999992  14.68999958  53.43000031
H    20.45000076  14.96000099  52.63000107
H    22.79000092  15.62999916  53.20999908
H    21.73000145  16.64999962  57.14000320
H    13.32999992  16.03999901  57.23999786
H    24.51000023  16.01000023  54.84000397
H    23.97999954  17.42000008  55.84000015
S    12.71999931  14.11999893  52.88000107
C    10.01999950  14.15999985  53.47999954
C    11.30000019  14.47999954  53.87000275
C    11.63000011  15.01000023  55.15999603
C    10.53999996  15.31999969  55.94999695
C     9.19999981  15.01999950  55.61000061
C     8.10000038  15.26000023  56.47999573
C     6.78999996  15.13000011  56.05999756
C     6.51999998  14.40999985  54.86999893
C     7.57999992  14.01999950  54.08000183
C     8.92000008  14.42000008  54.34000015
C    13.07999992  15.06999969  55.34999847
C    13.78000069  14.68999958  54.18000031
C    15.17000008  14.65000057  54.10999680
C     5.10999966  13.94999981  54.58000183
H     4.47084093  14.73829651  54.18230057
H     9.77000046  13.71000099  52.51999664
H    10.72999954  15.77999973  56.91999817
H     8.27999973  15.55999947  57.50999832
H     6.07999992  15.19999981  56.88000107
H     7.50000000  13.53000069  53.11999893
H    15.67999935  14.26000023  53.22999954
H     4.65999985  13.36999989  55.38999939
H     5.18000031  13.23999977  53.75999832
