96

S    15.59999943  14.91000080  64.43000031
C    18.32999992  15.06999969  63.72000122
C    17.02000046  14.84000015  63.36999893
C    16.64999962  14.45000076  62.04000092
C    17.59000015  14.50000000  61.02000427
C    18.96000099  14.67000008  61.30000305
C    20.03999901  14.65999985  60.37000275
C    21.32999802  15.03000069  60.63999939
C    21.63000107  15.44000053  61.95999908
C    20.61000061  15.44000053  62.88999939
C    19.27999878  15.01000023  62.67000198
C    15.21999931  14.27999973  61.86999893
C    14.52000046  14.60000038  63.06000137
C    13.12999916  14.63999939  63.08000183
C    23.05999947  15.72999954  62.35000229
H    23.40123367  15.21104145  63.24573898
H    18.55999947  15.52000046  64.68000031
H    17.35000038  14.35999966  59.97000122
H    19.77000046  14.28999996  59.38000107
H    22.10000038  15.00000000  59.86999893
H    20.76000023  15.80000019  63.90999603
H    12.67000008  14.98999977  64.00000000
H    23.64999962  15.57999992  61.44000244
H    23.01000214  16.79999924  62.60000229
S    12.05000019  14.15999985  59.29999924
C     9.38000011  13.80000019  59.93000031
C    10.62000084  14.21000004  60.34999847
C    10.95999908  14.40999985  61.72999954
C     9.92000008  14.37999916  62.64999771
C     8.59000015  14.14999962  62.22999954
C     7.50999975  14.34000015  63.13000107
C     6.21000004  14.23999977  62.68000031
C     5.96000004  13.75000000  61.37000275
C     6.96000004  13.63000011  60.43000031
C     8.30999947  13.80000019  60.86000061
C    12.39999962  14.37000084  61.91999817
C    13.12999916  14.23999977  60.70999908
C    14.51000023  14.06999969  60.68000031
C     4.51999998  13.42000008  61.04000092
H     4.12165880  14.01039886  60.21486282
H     9.13999939  13.53999996  58.89999771
H    10.24000072  14.47999954  63.68000031
H     7.64999962  14.67000008  64.15999603
H     5.38000011  14.60000038  63.27999878
H     6.72999954  13.50000000  59.36999893
H    15.01999950  14.00000000  59.72000122
H     3.95000005  13.45999908  61.97999954
H     4.51999998  12.36999989  60.72999954
S    12.69999981  11.50000000  56.09000397
C    10.00000000  11.35000038  56.86999893
C    11.32999992  11.17000008  57.18000031
C    11.77000046  10.60999966  58.41999817
C    10.84000015  10.25000000  59.38000107
C     9.47000027  10.44000053  59.12000275
C     8.42000008   9.94999981  59.93999863
C     7.09000015  10.11999989  59.62999725
C     6.69000053  10.80999947  58.46000290
C     7.67000008  11.23000050  57.58999634
C     9.04999924  11.03000069  57.87000275
C    13.21000004  10.77000046  58.56999969
C    13.85000038  11.26999950  57.42000198
C    15.21999931  11.54999924  57.39999771
C     5.21000004  11.05000019  58.29000092
H     4.83993053  10.51624489  57.41464233
H     9.70000076  11.65999985  55.86999893
H    11.14999962   9.68999958  60.26000214
H     8.69000053   9.44000053  60.86999893
H     6.28000021   9.92000008  60.33000183
H     7.53000021  11.84000015  56.70000076
H    15.59999943  12.06999969  56.52999878
H     4.69000006  10.80000019  59.22999954
H     5.00999975  12.09000015  58.00000000
S    16.57999992  10.36000061  60.87999725
C    19.15999985  10.90000057  60.26000214
C    17.85000038  11.13999939  59.92000198
C    17.40999985  11.72000027  58.68999863
C    18.38999939  12.23000050  57.84999847
C    19.75000000  12.01000023  58.18000031
C    20.81999969  12.15000057  57.25000000
C    22.14999962  11.78999996  57.39999771
C    22.53000069  11.25000000  58.64999771
C    21.54000092  11.00000000  59.58000183
C    20.17999840  11.31999969  59.36000061
C    15.98999977  11.42000008  58.55999756
C    15.36999893  10.77999973  59.65999985
C    14.01999950  10.44999981  59.66999817
C    23.98999977  11.03999996  59.00000000
H    24.26768875  11.50281525  59.94699097
H    19.29999924  10.22999954  61.10000229
H    18.13999939  12.51000023  56.83000183
H    20.55000114  12.48000050  56.25999832
H    22.86999893  11.82999992  56.59000015
H    21.93000031  10.62000084  60.52999878
H    13.68000031   9.89999962  60.54999924
H    24.50000000  11.36999989  58.09000015
H    24.07999992   9.94999981  59.12000275
