96

S    15.93000031  15.05000019  64.25000000
C    18.60000038  15.22999954  63.55999756
C    17.30999947  14.98000050  63.15000153
C    16.87999916  14.73999977  61.81000137
C    17.86999893  14.60999966  60.84999847
C    19.22000122  14.88000011  61.16000366
C    20.29000092  14.86999989  60.21999741
C    21.56999969  15.25000000  60.52000046
C    21.86000061  15.57000065  61.88000107
C    20.88999939  15.62999916  62.84999847
C    19.55999947  15.26000023  62.50999832
C    15.43000031  14.57999992  61.72000122
C    14.75999928  14.82999992  62.94000244
C    13.38000107  14.98000050  63.01000214
C    23.28000069  15.90999985  62.27000427
H    23.57337189  15.42342949  63.20021057
H    18.79999924  15.39000034  64.61999512
H    17.65999985  14.45000076  59.79999924
H    19.90999985  14.56999969  59.23999786
H    22.34999847  15.17000008  59.77000427
H    21.07000160  16.03000069  63.85000229
H    12.94999981  15.03000069  64.01000214
H    23.95000076  15.67000008  61.43000031
H    23.38000107  17.00000000  62.34000397
S    12.18999958  14.22999954  59.27999878
C     9.55000019  14.32000065  60.02999878
C    10.85000038  14.47999954  60.41999817
C    11.17000008  14.68000031  61.79999924
C    10.14999962  14.73000050  62.74000168
C     8.82000065  14.40999985  62.36999893
C     7.81000042  14.26000023  63.36000061
C     6.50000000  14.01000023  63.01000214
C     6.19000006  13.85000038  61.63000107
C     7.16000032  13.89000034  60.65999985
C     8.50000000  14.25000000  60.97999954
C    12.61999989  14.84000015  61.84000015
C    13.28999996  14.47000027  60.65000153
C    14.67000008  14.30999947  60.58000183
C     4.78999996  13.55000019  61.13999939
H     4.40640736  14.24615002  60.39412308
H     9.46000004  13.90999985  59.02000046
H    10.44999981  14.82999992  63.77999878
H     8.13000011  14.53999996  64.36000061
H     5.75000000  13.92000008  63.77999878
H     6.98000002  13.75000000  59.59999847
H    15.10000038  14.14000034  59.59999847
H     4.15999985  13.63000011  62.04000092
H     4.84000015  12.51999950  60.75000000
S    16.25000000  15.72000027  57.72999573
C    18.93000031  15.90999985  57.01000214
C    17.65999985  15.48999977  56.68000031
C    17.36999893  15.18000031  55.31000137
C    18.39999962  15.01000023  54.40999985
C    19.75000000  15.26000023  54.77000427
C    20.88000107  15.06000042  53.93000031
C    22.13000107  15.55999947  54.20999908
C    22.37999916  16.13000107  55.48999786
C    21.30000114  16.31999969  56.31999969
C    19.97999954  15.84000015  56.05999756
C    15.92000008  15.14000034  55.12000275
C    15.22999954  15.53999996  56.29000092
C    13.85000038  15.72999954  56.31000137
C    23.78999901  16.38000107  55.97000122
H    24.14684105  15.67345238  56.71936798
H    19.02000046  16.28999901  58.02000046
H    18.23999977  14.70000076  53.37999725
H    20.59000015  14.75000000  52.93000031
H    22.86999893  15.48999977  53.41999817
H    21.54000092  16.64999962  57.32999802
H    13.30000019  15.98999977  57.21000290
H    24.47999954  16.43000031  55.12000275
H    23.71999931  17.38999939  56.39999771
S    12.60000038  14.80999947  52.65999603
C     9.90999985  14.63000107  53.50999832
C    11.21999931  14.96999931  53.75999832
C    11.61999893  15.44000053  55.06000137
C    10.65999985  15.48999977  56.04999924
C     9.30999947  15.07999992  55.87999725
C     8.36000061  15.01999950  56.93999863
C     7.07000017  14.80000019  56.53999710
C     6.65000010  14.52000046  55.20999908
C     7.59999990  14.35999966  54.22999954
C     8.96000004  14.63999939  54.55999756
C    13.07000065  15.48999977  55.17000198
C    13.73999977  15.05000019  54.00000000
C    15.11999989  14.91000080  54.00000000
C     5.19999981  14.37999916  54.81999969
H     4.91500854  14.92860794  53.92227554
H     9.67000008  14.42000008  52.47000122
H    10.81999969  15.65999985  57.11000061
H     8.51000023  15.43000031  57.93000031
H     6.24000025  14.94999981  57.22000122
H     7.25000000  14.04000092  53.25000000
H    15.67999935  14.63000107  53.11000061
H     4.53999996  14.68999958  55.63999939
H     4.99000025  13.34000015  54.54000092
