96

S    15.77999973  14.92000008  64.62999725
C    18.38999939  15.36000061  63.85000229
C    17.15999985  14.84000015  63.50999832
C    16.86000061  14.25000000  62.23999786
C    17.88999939  14.18000031  61.31999969
C    19.19000053  14.65999985  61.63000107
C    20.28000069  14.63000107  60.72000122
C    21.54000092  15.06999969  61.05999756
C    21.80999947  15.65000057  62.32999802
C    20.75000000  15.73999977  63.20000076
C    19.44000053  15.26000023  62.90999985
C    15.40999985  14.17000008  62.11000061
C    14.70000076  14.47000027  63.29999924
C    13.30999947  14.56999969  63.30999756
C    23.18000031  16.11999893  62.76000214
H    23.48628807  15.60714531  63.67174149
H    18.54999924  15.90000057  64.77999878
H    17.75000000  13.76999950  60.31999969
H    20.05000114  14.15999985  59.77000427
H    22.36000061  14.98000050  60.34999847
H    20.95000076  16.18000031  64.18000031
H    12.72999954  14.73000050  64.20999908
H    23.92999840  16.00000000  61.97000122
H    22.95999908  17.18000031  62.95000076
S    12.18999958  13.78999901  59.52999878
C     9.53999996  13.55999947  60.22999573
C    10.80000019  13.94000053  60.63000107
C    11.17000008  14.48999977  61.90000153
C    10.14999962  14.63999939  62.81999969
C     8.84000015  14.22000027  62.50999832
C     7.75000000  14.46000004  63.40000153
C     6.50000000  13.96000004  63.11999893
C     6.11999989  13.63999939  61.79000092
C     7.16000032  13.43999958  60.90999985
C     8.52000046  13.73999977  61.18999863
C    12.61999989  14.47000027  62.09999847
C    13.27000046  14.06000042  60.90999985
C    14.65000057  13.88000011  60.97000122
C     4.72000027  13.12999916  61.50000000
H     4.27011824  13.70841980  60.69306946
H     9.36999989  13.28999996  59.19000244
H    10.25000000  14.93999958  63.86000061
H     8.05999947  14.75999928  64.40000153
H     5.84000015  14.06000042  63.96999741
H     7.03999996  13.02000046  59.92000198
H    15.03000069  13.56999969  60.00000000
H     4.15999985  13.12000084  62.43999863
H     4.80999994  12.07999992  61.19999695
S    16.18999863  15.18000031  57.83000183
C    18.82999992  15.57000065  57.09000015
C    17.61000061  15.01000023  56.79000092
C    17.21999931  14.60999966  55.47000122
C    18.20000076  14.60000038  54.50000000
C    19.47999954  15.11999989  54.80999756
C    20.50000000  15.25000000  53.82999802
C    21.71999931  15.84000015  54.06999969
C    22.07999992  16.11999893  55.41999817
C    21.11999893  16.17000008  56.39999771
C    19.80999947  15.72000027  56.07999802
C    15.77000046  14.52999973  55.31999969
C    15.06999969  14.70000076  56.53999710
C    13.68000031  14.80000019  56.58000183
C    23.50000000  16.46999931  55.80999756
H    23.81906509  15.88859272  56.67501831
H    18.98999977  15.97000027  58.09000015
H    17.89999962  14.34999943  53.47999954
H    20.22999954  14.75999928  52.90000153
H    22.57999802  15.78999996  53.40999985
H    21.24000168  16.44000053  57.44999695
H    13.09999943  15.24000072  57.38999939
H    24.13000107  16.28000069  54.93000031
H    23.61000061  17.53999901  55.97999954
S    12.51000023  14.18000031  52.88000107
C     9.89000034  13.68999958  53.69999695
C    11.14999962  14.14999962  54.01000214
C    11.46000004  14.60000038  55.33000183
C    10.47000027  14.86999989  56.25999832
C     9.13999939  14.55999947  55.91999817
C     8.10999966  14.65000057  56.90000153
C     6.80999994  14.35999966  56.52999878
C     6.51999998  13.71000099  55.30000305
C     7.55000019  13.43999958  54.43999863
C     8.85999966  13.94000053  54.65000153
C    12.90999985  14.59000015  55.43000031
C    13.61999989  14.55999947  54.20999908
C    15.01000023  14.50000000  54.15000153
C     5.09999990  13.27999973  54.98000336
H     4.67218399  13.88607311  54.18141174
H     9.68000031  13.22999954  52.74000168
H    10.67000008  15.17000008  57.29000092
H     8.38000011  15.06999969  57.85999680
H     5.98000002  14.42999935  57.22999954
H     7.32999992  12.97999954  53.47999954
H    15.59000015  14.45000076  53.22999954
H     4.44999981  13.50000000  55.84000015
H     5.07000017  12.20000076  54.81999969
