96

S    15.57000065  15.32999992  64.50000000
C    18.26000023  15.19999981  63.82999802
C    16.95999908  14.98000050  63.44999695
C    16.61999893  14.67000008  62.09000015
C    17.59000015  14.34000015  61.16000366
C    18.93000031  14.46000004  61.59999847
C    20.00000000  14.23999977  60.68000031
C    21.27000046  14.65000057  61.00999832
C    21.56999969  15.32999992  62.22000122
C    20.59999847  15.47000027  63.18999863
C    19.27999878  15.06000042  62.85999680
C    15.18000031  14.73999977  61.88999939
C    14.51000023  15.10000038  63.09000015
C    13.12999916  15.15999985  63.13999939
C    22.95999908  15.90999985  62.36000061
H    23.43551445  15.46287346  63.23296356
H    18.30999947  15.52999973  64.86000061
H    17.32999992  13.90999985  60.19000244
H    19.72999954  13.83999920  59.71000290
H    22.04000092  14.67000008  60.25000000
H    20.88999939  15.90999985  64.13999939
H    12.56999969  15.27999973  64.06999969
H    23.52999878  15.76000023  61.43000031
H    22.98000145  17.00000000  62.50000000
S    12.01000023  14.11000061  59.40999985
C     9.36999989  13.78000069  60.13000107
C    10.60999966  14.22999954  60.50000000
C    10.95999908  14.67000008  61.81999969
C     9.90999985  14.82999992  62.71999741
C     8.60000038  14.47000027  62.34000397
C     7.50000000  14.78999996  63.18999863
C     6.19999981  14.53999996  62.80000305
C     5.93999958  13.80000019  61.60999680
C     6.97000027  13.53999996  60.73999786
C     8.31999969  13.82999992  61.07999802
C    12.38999939  14.81999969  62.00000000
C    13.05999947  14.51000023  60.77999878
C    14.44000053  14.47999954  60.72999954
C     4.51000023  13.45000076  61.25000000
H     4.26074934  13.95562267  60.31708908
H     9.22000027  13.31999969  59.15000153
H    10.03999901  15.18000031  63.74000168
H     7.71000004  15.26999950  64.13999939
H     5.35000038  14.61999989  63.46000290
H     6.81999969  13.17000008  59.72999954
H    14.98000050  13.96999931  59.93999863
H     3.77999997  13.85000038  61.97000122
H     4.28999996  12.38000011  61.18000031
S    16.18000031  15.59000015  57.91999817
C    18.89999962  15.53999996  57.23999786
C    17.60000038  15.15999985  56.95999908
C    17.30999947  14.63000107  55.65999985
C    18.31999969  14.53999996  54.72000122
C    19.65999985  14.93999958  54.94999695
C    20.76000023  14.82999992  54.03999710
C    22.00000000  15.31999969  54.38000107
C    22.20999908  15.93000031  55.63999939
C    21.15999985  16.11999893  56.51000214
C    19.90999985  15.48999977  56.25000000
C    15.86999989  14.55999947  55.50000000
C    15.14000034  15.18000031  56.55000305
C    13.76000023  15.31999969  56.55000305
C    23.59000015  16.36000061  56.07999802
H    23.95801353  15.64520550  56.81602478
H    19.14999962  15.97000027  58.20000076
H    17.92000008  14.19000053  53.76999664
H    20.71000099  14.29999924  53.09000015
H    22.82999992  15.18000031  53.68999863
H    21.38999939  16.39000130  57.54000092
H    13.23999977  15.85000038  57.36000061
H    24.05999947  16.17000008  55.11000061
H    23.54999924  17.39999962  56.42000198
S    12.71000004  14.04000092  52.95000076
C     9.94999981  14.15999985  53.50999832
C    11.25000000  14.40000057  53.89999771
C    11.59999943  14.82999992  55.21999741
C    10.64000034  15.15999985  56.14999771
C     9.30999947  14.88000011  55.76000214
C     8.26000023  15.05000019  56.70000076
C     6.94999981  14.92000008  56.31000137
C     6.57000017  14.45000076  55.01999664
C     7.57999992  14.04999924  54.16999817
C     8.93999958  14.32999992  54.47999954
C    13.03999996  14.88000011  55.44000244
C    13.76999950  14.34999943  54.34000015
C    15.15999985  14.32000065  54.31999969
C     5.14999962  14.00000000  54.78000259
H     4.75226736  14.50426769  53.89930725
H     9.65999985  13.56999969  52.63999939
H    10.88999939  15.57999992  57.11999893
H     8.43999958  15.52999973  57.65999603
H     6.14000034  15.18000031  56.98999786
H     7.23999977  13.45000076  53.33000183
H    15.70000076  13.89999962  53.47000122
H     4.48999977  14.25000000  55.61999893
H     5.07000017  12.92000008  54.59999847
