96

S    16.62999916  14.85000038  64.15000153
C    19.34999847  15.15999985  63.47999954
C    18.05999947  14.81999969  63.11000061
C    17.69000053  14.47999954  61.77000046
C    18.65999985  14.39000034  60.79000092
C    19.98999977  14.70999908  61.14999771
C    20.98999977  14.63999939  60.13999939
C    22.26000023  15.10000038  60.40000153
C    22.57999802  15.57999992  61.70000076
C    21.68999863  15.54999924  62.74000168
C    20.34000015  15.17000008  62.47000122
C    16.25000000  14.44000053  61.52999878
C    15.55999947  14.67000008  62.74000168
C    14.18000031  14.68999958  62.84000015
C    23.98999977  15.84000015  62.18000031
H    24.33061790  15.15166950  62.95348740
H    19.68000031  15.55999947  64.43000031
H    18.27999878  14.00000000  59.85000229
H    20.71000099  14.30999947  59.13999939
H    23.12999916  14.91000080  59.79000092
H    22.04000092  15.57000065  63.76999664
H    13.71000099  14.77000046  63.81999969
H    24.70999908  15.88999939  61.36000061
H    23.97000122  16.87999916  62.54000092
S    13.00000000  13.83999920  59.12000275
C    10.31000042  13.88000011  59.86000061
C    11.61000061  14.21000004  60.15999603
C    12.00000000  14.57999992  61.47999573
C    11.09000015  14.70000076  62.50999832
C     9.72999954  14.61999989  62.14000320
C     8.71999931  14.70999908  63.13999939
C     7.37999964  14.55999947  62.84000015
C     7.00000000  14.44000053  61.47999573
C     7.94000053  14.28999996  60.47999954
C     9.32999992  14.29999924  60.79000092
C    13.45000076  14.55999947  61.65999985
C    14.09999943  14.34999943  60.40999985
C    15.47999954  14.19000053  60.38999939
C     5.51000023  14.32000065  61.22000122
H     5.16888285  14.41949272  60.18954468
H    10.01999950  13.73999977  58.81999969
H    11.43000031  14.68000031  63.54999924
H     9.13999939  14.92000008  64.12000275
H     6.67999983  14.65000057  63.66000366
H     7.57000017  13.97999954  59.51000214
H    15.98999977  13.96999931  59.45999908
H     5.17000008  15.18000031  61.79000092
H     5.00000000  13.47000027  61.68000031
S    12.92000008  11.84999943  56.05999756
C    10.25000000  11.56999969  56.84999847
C    11.57999992  11.38000011  57.14000320
C    12.03999996  10.80000019  58.36000061
C    11.10000038  10.26000023  59.22000122
C     9.72999954  10.39000034  58.90999603
C     8.71999931   9.80000019  59.72999954
C     7.37999964   9.88000011  59.45000076
C     6.93000031  10.52000046  58.26000214
C     7.88000011  11.00999928  57.38999939
C     9.27999973  10.93999958  57.65999603
C    13.48999977  10.88000107  58.48999786
C    14.09000015  11.44000053  57.32999802
C    15.40999985  11.84999943  57.22999954
C     5.45000029  10.71000004  58.04000092
H     5.19345808  10.51046753  56.99958038
H     9.96000004  12.10000038  55.93999863
H    11.30000019   9.76000023  60.17000198
H     9.11999989   9.36999989  60.65000153
H     6.67000008   9.72000027  60.25000000
H     7.57000017  11.59000015  56.52999878
H    15.71000004  12.61000061  56.52000046
H     4.88999987  10.10000038  58.76999664
H     5.23000002  11.75000000  58.31999969
S    16.90999985  10.52000046  60.70999908
C    19.54000092  10.88000107  59.89999771
C    18.20000076  11.06999969  59.62999725
C    17.70000076  11.67000008  58.43000031
C    18.59000015  12.05999947  57.44999695
C    19.96999931  11.85999966  57.69000244
C    20.90999985  12.35999966  56.75000000
C    22.27000046  12.35999966  56.95999908
C    22.70000076  11.84999943  58.22000122
C    21.87000084  11.26000023  59.15000153
C    20.46999931  11.26000023  58.89999771
C    16.26000023  11.47999954  58.27999878
C    15.71000004  10.90000057  59.45000076
C    14.35999966  10.57999992  59.54999924
C    24.13999939  12.05999947  58.60000229
H    24.41037178  11.69001675  59.58899689
H    19.78999901  10.57000065  60.90999985
H    18.35000038  12.28000069  56.42000198
H    20.52999878  12.81999969  55.84000015
H    22.98000145  12.81000042  56.27999878
H    22.27000046  11.02000046  60.13000107
H    14.00000000  10.06000042  60.43000031
H    24.25000000  13.15000057  58.63999939
H    24.68000031  11.67000008  57.72999573
