96

S    16.35000038  15.95000076  64.31000519
C    19.05999947  15.80000019  63.68000031
C    17.75000000  15.62999916  63.27000046
C    17.38000107  15.14000034  61.97999954
C    18.38999939  14.80999947  61.10000229
C    19.75000000  14.94999981  61.45000076
C    20.82999992  14.89999962  60.52000046
C    22.10000038  15.25000000  60.87999725
C    22.39000130  15.81999969  62.15000153
C    21.35999870  16.06999969  63.02999878
C    20.06999969  15.57000065  62.70999908
C    15.93000031  15.00000000  61.86999893
C    15.22999954  15.39000034  63.04000092
C    13.85000038  15.50000000  63.04999924
C    23.78000069  16.29999924  62.50000000
H    24.22264671  15.63603115  63.24250412
H    19.36000061  16.17000008  64.66000366
H    18.20999908  14.61999989  60.04000092
H    20.65000153  14.61999989  59.48999786
H    22.93000031  15.01999950  60.21999741
H    21.44000053  16.69999886  63.90999603
H    13.38999939  15.98000050  63.89999771
H    24.37999916  16.44000053  61.59000015
H    23.71999931  17.31999969  62.90000153
S    12.69000053  14.34999943  59.45999908
C    10.00000000  14.22999954  60.31000137
C    11.31000042  14.55999947  60.54999924
C    11.65999985  14.96999931  61.88000107
C    10.64000034  15.14000034  62.80000305
C     9.27999973  14.86999989  62.55000305
C     8.25000000  14.81999969  63.54000092
C     6.94999981  14.50000000  63.23999786
C     6.65000010  14.00000000  61.95000076
C     7.59999990  14.01999950  60.94999695
C     8.94999981  14.32999992  61.25999832
C    13.10999966  15.01999950  61.95999908
C    13.82999992  14.72000027  60.77000046
C    15.21000004  14.68999958  60.70999908
C     5.25000000  13.60999966  61.52000046
H     4.95778990  14.16591167  60.62911606
H     9.84000015  13.83999920  59.31000137
H    10.95999908  15.39999962  63.81000137
H     8.48999977  15.06999969  64.56999969
H     6.14000034  14.55000019  63.96999741
H     7.32999992  13.73000050  59.93999863
H    15.75000000  14.29999924  59.85000229
H     4.55000019  13.60000038  62.36999893
H     5.38000011  12.56000042  61.20999908
S    13.07000065  12.15000057  56.11000061
C    10.44999981  11.64999962  57.01000214
C    11.80999947  11.51000023  57.18999863
C    12.28999996  11.02000046  58.44999695
C    11.38000011  10.53999996  59.38000107
C     9.98999977  10.52000046  59.12000275
C     9.02999973   9.92000008  59.98000336
C     7.68000031   9.98000050  59.72000122
C     7.23000002  10.70000076  58.57999802
C     8.09000015  11.28999901  57.69000244
C     9.48999977  11.16000080  57.93000031
C    13.69999981  11.33999920  58.56999969
C    14.22999954  12.02000046  57.44999695
C    15.55999947  12.43000031  57.49000168
C     5.77000046  10.50000000  58.23999786
H     5.47925901  10.93256569  57.28268051
H    10.14000034  12.13000107  56.09000397
H    11.73999977  10.08999920  60.30000305
H     9.38000011   9.48999977  60.91999817
H     6.89000034   9.55000019  60.33000183
H     7.90999985  11.77000046  56.72999954
H    15.95000076  12.81000042  56.55000305
H     5.51999998   9.43000031  58.26000214
H     5.15999985  10.98999977  59.00000000
S    17.07999992  10.92000008  60.80999756
C    19.73999977  11.28000069  59.97000122
C    18.39999962  11.52999973  59.79999924
C    17.88999939  12.05999947  58.56999969
C    18.81999969  12.36999989  57.58999634
C    20.20999908  12.22000027  57.77000046
C    21.15999985  12.55000019  56.76000214
C    22.50999832  12.46999931  57.00000000
C    23.02999878  11.87999916  58.16999817
C    22.11000061  11.47999954  59.12000275
C    20.69999886  11.64000034  59.00000000
C    16.43000031  12.00000000  58.50000000
C    15.84000015  11.35000038  59.61000061
C    14.47999954  11.03999996  59.68999863
C    24.46000099  12.05000019  58.63999939
H    24.55224991  11.77324867  59.69023514
H    20.10000038  10.78999996  60.87999725
H    18.42000008  12.64999962  56.62000275
H    20.76999855  13.15000057  55.93000031
H    23.15000153  12.97999954  56.26999664
H    22.56999969  11.18999958  60.05000305
H    14.19000053  10.34999943  60.47999954
H    24.69000053  13.12999916  58.62999725
H    25.20999908  11.54000092  58.02999878
