96

S    16.06999969  15.76000023  64.33000183
C    18.77000046  15.81999969  63.68999863
C    17.46999931  15.75000000  63.23999786
C    17.06999969  15.29999924  61.93999863
C    18.12000084  15.06000042  61.06999969
C    19.48999977  15.17000008  61.43000031
C    20.45999908  14.98999977  60.40000153
C    21.76000214  15.25000000  60.76000214
C    22.13999939  15.64000034  62.06999969
C    21.18999863  15.84000015  63.04000092
C    19.80999947  15.57999992  62.77000046
C    15.65999985  14.98999977  61.81999969
C    14.96999931  15.26999950  63.02999878
C    13.57999992  15.25000000  63.08000183
C    23.57999992  16.01000023  62.36999893
H    23.94351196  15.35425282  63.16117096
H    18.96999931  16.05999947  64.73000336
H    17.87999916  15.11999989  60.00999832
H    20.20000076  14.75999928  59.36999893
H    22.43999863  15.18000031  59.91000366
H    21.42000008  16.14999962  64.05000305
H    13.10999966  15.38000011  64.05000305
H    24.20000076  15.88000107  61.46999741
H    23.55999947  17.02999878  62.77000046
S    12.46999931  14.61999989  59.31999969
C     9.73999977  14.23999977  60.06999969
C    11.03999996  14.56999969  60.37000275
C    11.42000008  14.94999981  61.70000076
C    10.48999977  14.96000099  62.71999741
C     9.13000011  14.63999939  62.45999908
C     8.19000053  14.63000107  63.52000427
C     6.86999989  14.32999992  63.25000000
C     6.50000000  14.01999950  61.90999985
C     7.40999985  13.99000072  60.87999725
C     8.76999950  14.32999992  61.10000229
C    12.84999943  15.13000011  61.88999939
C    13.56999969  14.98000050  60.66999817
C    14.94999981  14.85000038  60.61999893
C     5.07000017  13.61999989  61.65000153
H     4.59870625  14.19126511  60.85022736
H     9.38000011  13.90999985  59.09999847
H    10.75000000  15.14000034  63.75999832
H     8.40999985  15.03999901  64.50000000
H     6.10000038  14.37999916  64.01000214
H     7.23999977  13.66000080  59.86000061
H    15.40999985  14.55999947  59.68000031
H     4.44999981  13.66000080  62.56000137
H     5.10999966  12.56000042  61.36000061
S    16.34000015  15.81999969  57.81999969
C    19.00000000  16.14999962  57.12999725
C    17.76000023  15.69000053  56.76000214
C    17.39999962  15.26000023  55.44000244
C    18.40999985  15.03000069  54.52000046
C    19.71999931  15.38000011  54.92000198
C    20.76000023  15.07999992  53.99000168
C    22.03000069  15.57000065  54.23999786
C    22.29999924  16.32999992  55.40000153
C    21.35000038  16.50000000  56.38999939
C    20.02000046  16.07999992  56.13999939
C    15.95000076  15.19999981  55.31000137
C    15.21000004  15.53999996  56.46999741
C    13.83999920  15.73999977  56.56999969
C    23.74000168  16.69000053  55.66999817
H    24.18082428  16.09986496  56.47343826
H    19.05999947  16.61999893  58.11000061
H    18.19000053  14.40999985  53.66000366
H    20.55999947  14.53999996  53.06999969
H    22.80999947  15.34999943  53.50999832
H    21.63000107  16.95999908  57.32999802
H    13.35000038  16.05999947  57.49000168
H    24.33000183  16.53000069  54.75999832
H    23.78999901  17.75000000  55.93000031
S    12.69000053  14.55999947  52.97000122
C     9.89999962  14.85999966  53.54000092
C    11.21999931  14.96999931  53.88000107
C    11.61999893  15.44999981  55.17000198
C    10.60999966  15.77000046  56.05999756
C     9.23999977  15.54999924  55.77000046
C     8.15999985  15.57999992  56.70000076
C     6.88000011  15.15999985  56.43000031
C     6.54999971  14.65999985  55.14999771
C     7.53000021  14.63999939  54.18000031
C     8.85000038  15.06000042  54.47999954
C    13.04999924  15.44000053  55.45999908
C    13.76000023  15.05000019  54.29000092
C    15.14999962  14.94999981  54.20000076
C     5.21000004  14.00000000  54.87999725
H     4.70389080  14.56313610  54.09588623
H     9.71000004  14.52999973  52.51999664
H    10.85999966  15.90000057  57.11000061
H     8.36000061  15.88000107  57.72999573
H     6.21000004  14.93999958  57.25000000
H     7.27999973  14.19000053  53.22000122
H    15.59999943  14.65000057  53.26000214
H     4.61000013  14.02999973  55.79000092
H     5.29999971  12.93000031  54.66999817
