96

S    15.93999958  15.31999969  64.47000122
C    18.63000107  15.47999954  63.75000000
C    17.34000015  15.19999981  63.39000320
C    17.01000023  14.78000069  62.05999756
C    18.00000000  14.65999985  61.11000061
C    19.34000015  14.96000099  61.45000076
C    20.42000008  14.80000019  60.52999878
C    21.71999931  15.06999969  60.86999893
C    22.04000092  15.57999992  62.15999985
C    21.04000092  15.64000034  63.09999847
C    19.67000008  15.38000011  62.78999710
C    15.57000065  14.77000046  61.79999924
C    14.93000031  15.06000042  63.02999878
C    13.55000019  15.22999954  63.01000214
C    23.45999908  16.01000023  62.47000122
H    23.88017464  15.36193466  63.23913193
H    18.89999962  15.98999977  64.66999817
H    17.89999962  14.14000034  60.15999603
H    20.15999985  14.40999985  59.54999924
H    22.53999901  15.01999950  60.15999603
H    21.17000198  16.17000008  64.04000092
H    13.02999973  15.39000034  63.95000076
H    24.11999893  15.90999985  61.60999680
H    23.45999908  17.04000092  62.85999680
S    12.44999981  14.30999947  59.29999924
C     9.77000046  14.19000053  60.02999878
C    11.03999996  14.57999992  60.34999847
C    11.36000061  15.03000069  61.66999817
C    10.36999893  15.14999962  62.63000107
C     9.03999996  14.82999992  62.30999756
C     8.00000000  14.85999966  63.29000092
C     6.76999998  14.32000065  63.00000000
C     6.44000006  13.88000011  61.69000244
C     7.39000034  13.96000004  60.70999908
C     8.73999977  14.29999924  61.00000000
C    12.81000042  15.01000023  61.84000015
C    13.52000046  14.60000038  60.68999863
C    14.89999962  14.47999954  60.61000061
C     5.03999996  13.38000107  61.39999771
H     4.64844608  13.88546085  60.51721954
H     9.53999996  13.75000000  59.06000137
H    10.64000034  15.44999981  63.64999771
H     8.30000019  15.07999992  64.31000519
H     6.06999969  14.21000004  63.81999969
H     7.09999990  13.64999962  59.71000290
H    15.47000027  14.34999943  59.68999863
H     4.36999989  13.61999989  62.22999954
H     5.12000036  12.28999996  61.31999969
S    12.57999992  12.18999958  56.51000214
C     9.92999935  11.49000072  57.27000427
C    11.28000069  11.54000092  57.52999878
C    11.87000084  11.05000019  58.74000168
C    11.03000069  10.54999924  59.72000122
C     9.63000011  10.47000027  59.51000214
C     8.69999981  10.00000000  60.47999954
C     7.34000015  10.01999950  60.28999710
C     6.81999969  10.54999924  59.08000183
C     7.67000008  11.09000015  58.13999939
C     9.07999992  10.95999908  58.27000046
C    13.31999969  11.02000046  58.73000336
C    13.88000011  11.71000004  57.62000275
C    15.25000000  11.97000027  57.61000061
C     5.38000011  10.40999985  58.63999939
H     5.03069019  10.74505329  57.66336060
H     9.51000023  12.00000000  56.39999771
H    11.47999954  10.32999992  60.68000031
H     9.15999985   9.77000046  61.44000244
H     6.65999985   9.68999958  61.05999756
H     7.26000023  11.47999954  57.21000290
H    15.75000000  12.51000023  56.81000137
H     5.14999962   9.34000015  58.69999695
H     4.67000008  10.88000107  59.34000015
S    16.63999939  10.77000046  61.18000031
C    19.29999924  11.17000008  60.35999680
C    17.95999908  11.26999950  60.10000229
C    17.46999931  11.77000046  58.85000229
C    18.42000008  12.15000057  57.90999985
C    19.80999947  12.17000008  58.18000031
C    20.76000023  12.42000008  57.15000153
C    22.11000061  12.30999947  57.39999771
C    22.56000137  11.65999985  58.57999802
C    21.65999985  11.32999992  59.56999969
C    20.27000046  11.61000061  59.41999817
C    16.03000069  11.64000034  58.72000122
C    15.47000027  11.02000046  59.86999893
C    14.11000061  10.73999977  59.85000229
C    24.02000046  11.39000034  58.83999634
H    24.37554741  11.84510231  59.76442337
H    19.75000000  10.81999969  61.27999878
H    18.11000061  12.50000000  56.93000031
H    20.29000092  12.76000023  56.23000336
H    22.80999947  12.81000042  56.72999954
H    22.06999969  10.84000015  60.45000076
H    13.66000080  10.29000092  60.72999954
H    24.54999924  11.71000004  57.93000031
H    24.13000107  10.31000042  58.95999908
