96

S    15.84000015  15.39000034  64.69999695
C    18.48999977  15.51000023  63.93000031
C    17.20999908  15.13000011  63.60000229
C    16.84999847  14.63000107  62.30999756
C    17.86999893  14.42999935  61.38999939
C    19.19000053  14.80999947  61.69000244
C    20.22000122  14.65000057  60.70999908
C    21.50000000  15.06000042  60.97000122
C    21.81999969  15.59999943  62.25000000
C    20.86000061  15.81999969  63.20000076
C    19.52999878  15.34999943  62.97999954
C    15.39999962  14.61999989  62.14000320
C    14.75999928  14.98999977  63.34999847
C    13.38000107  15.01999950  63.50999832
C    23.25000000  16.01000023  62.55000305
H    23.67752457  15.29745960  63.25541687
H    18.70000076  16.10999870  64.80000305
H    17.57999992  13.93000031  60.47000122
H    19.97999954  14.34000015  59.69999695
H    22.29999924  14.81999969  60.27000046
H    21.09999847  16.20000076  64.19000244
H    12.93000031  15.51000023  64.36999512
H    23.92999840  15.88000107  61.70000076
H    23.42000008  17.02000046  62.93000031
S    12.10000038  13.96999931  59.87999725
C     9.39999962  14.09999943  60.61000061
C    10.72000027  14.26000023  60.96000290
C    11.17000008  14.65000057  62.27000427
C    10.15999985  14.86999989  63.18000031
C     8.76999950  14.77000046  62.90000153
C     7.76999998  14.81999969  63.90999603
C     6.44000006  14.55999947  63.63999939
C     6.05999994  14.18000031  62.32999802
C     7.03000021  14.02999973  61.37000275
C     8.39999962  14.34999943  61.58000183
C    12.61999989  14.63999939  62.39999771
C    13.26000023  14.28999996  61.18000031
C    14.63000107  14.39000034  61.00000000
C     4.63000011  13.81000042  62.01000214
H     4.30931664  14.37297821  61.13346481
H     9.18000031  13.82999992  59.58000183
H    10.44999981  15.14999962  64.19000244
H     8.18000031  15.06000042  64.87999725
H     5.69999981  14.68999958  64.43000031
H     6.67999983  13.82999992  60.35999680
H    14.98000050  14.21000004  59.99000168
H     4.02999973  14.01000023  62.90000153
H     4.59000015  12.72999954  61.81999969
S    16.43000031  15.27999973  57.93000031
C    19.11999893  15.71000004  57.12999725
C    17.81999969  15.36000061  56.83000183
C    17.45000076  15.03000069  55.48999786
C    18.42000008  14.91000080  54.51000214
C    19.73999977  15.32999992  54.75999832
C    20.66999817  15.46000004  53.68000031
C    21.88999939  16.03000069  53.90999603
C    22.29999924  16.40999985  55.20999908
C    21.37000084  16.34000015  56.22000122
C    20.07999802  15.76000023  56.09000397
C    16.01000023  14.93999958  55.31999969
C    15.31999969  15.13000011  56.55000305
C    13.94000053  15.26000023  56.63999939
C    23.71999931  16.86000061  55.48999786
H    24.30384636  16.10527420  56.01688766
H    19.47000122  16.17000008  58.04999924
H    18.12999916  14.52999973  53.53000259
H    20.50000000  14.96000099  52.72999573
H    22.50999832  16.25000000  53.04000092
H    21.56999969  16.72999954  57.22000122
H    13.53999996  15.51000023  57.61000061
H    24.28999901  17.07999992  54.58000183
H    23.69999886  17.80999947  56.03000259
S    12.75000000  14.77000046  52.85999680
C    10.06999969  14.88000011  53.57999802
C    11.39000034  14.94999981  53.97999573
C    11.75000000  15.07999992  55.35999680
C    10.75000000  15.27999973  56.29000092
C     9.38000011  15.19999981  55.93000031
C     8.38000011  15.19999981  56.93999863
C     7.07000017  15.03000069  56.56999969
C     6.72999954  14.82999992  55.20000076
C     7.69000006  14.68000031  54.22999954
C     9.03999996  15.00000000  54.54000092
C    13.20000076  15.03999901  55.47000122
C    13.86999989  14.92000008  54.22999954
C    15.26000023  14.92000008  54.13999939
C     5.28999996  14.55999947  54.85000229
H     5.06972408  14.78027534  53.80546570
H     9.81000042  14.48999977  52.60000229
H    11.03000069  15.51000023  57.31999969
H     8.64999962  15.38000011  57.97999954
H     6.28999996  14.98999977  57.31999969
H     7.42000008  14.37000084  53.22000122
H    15.77999973  15.08999920  53.20000076
H     4.55000019  15.00000000  55.52000046
H     5.07999992  13.48000050  54.89999771
