96

S    15.78999996  15.29000092  64.09999847
C    18.52000046  15.47999954  63.53000259
C    17.26000023  15.11000061  63.13000107
C    16.97999954  14.52000046  61.84999847
C    18.02000046  14.11999893  61.04000092
C    19.34000015  14.42000008  61.45999908
C    20.36000061  14.37000084  60.47999954
C    21.63999939  14.70000076  60.84999847
C    21.94999886  15.26999950  62.11999893
C    20.93000031  15.53999996  63.00000000
C    19.61000061  15.13000011  62.68000031
C    15.57000065  14.60999966  61.52000046
C    14.80000019  14.93999958  62.68000031
C    13.43000031  15.15999985  62.61000061
C    23.36999893  15.65999985  62.44999695
H    23.75415611  15.26161575  63.38904572
H    18.61999893  15.82999992  64.55999756
H    17.84000015  13.83999920  60.00000000
H    20.17999840  13.96999931  59.47999954
H    22.36000061  14.75000000  60.04000092
H    21.07000160  16.13999939  63.89999771
H    13.07999992  15.50000000  63.56999969
H    24.02000046  15.47999954  61.58000183
H    23.28000069  16.75000000  62.57999802
S    12.41000080  13.81999969  59.06000137
C     9.67000008  13.73999977  59.72000122
C    10.97000027  14.06000042  60.06000137
C    11.28999901  14.65000057  61.31999969
C    10.34000015  14.75000000  62.31999969
C     8.97999954  14.40999985  62.08000183
C     7.96999979  14.65999985  63.04000092
C     6.70000029  14.25000000  62.70000076
C     6.43000031  13.52000046  61.51000214
C     7.40000010  13.43000031  60.52999878
C     8.73000050  13.86000061  60.77000046
C    12.72999954  14.82999992  61.44000244
C    13.50000000  14.39000034  60.33000183
C    14.88999939  14.29999924  60.34000015
C     5.07000017  12.96000004  61.18000031
H     4.61310530  13.67389774  60.49465561
H     9.51000023  13.30999947  58.73000336
H    10.57999992  15.06999969  63.33000183
H     8.14999962  15.11999989  64.01000214
H     5.86000013  14.27999973  63.39000320
H     7.27999973  12.97999954  59.54999924
H    15.34999943  13.61999989  59.62999725
H     4.56999969  12.89999962  62.15999985
H     5.12000036  11.94000053  60.77000046
S    16.76000023  15.54999924  57.72999573
C    19.44000053  15.69000053  56.93000031
C    18.13999939  15.34999943  56.63000107
C    17.76000023  14.84000015  55.34999847
C    18.77000046  14.65999985  54.43000031
C    20.12000084  15.03999901  54.64000320
C    21.21999931  14.93000031  53.75000000
C    22.49000168  15.27999973  54.13999939
C    22.82999992  15.77999973  55.43000031
C    21.77000046  16.01000023  56.25999832
C    20.45000076  15.57000065  55.93999863
C    16.31000137  14.78999996  55.20999908
C    15.64000034  15.18000031  56.39999771
C    14.27999973  15.46000004  56.44000244
C    24.21999931  16.29999924  55.72000122
H    24.72706413  15.60010815  56.38418198
H    19.64999962  16.21000099  57.85999680
H    18.40999985  14.35999966  53.43999863
H    21.00000000  14.47000027  52.78999710
H    23.25000000  15.10000038  53.39000320
H    21.96000099  16.61000061  57.15000153
H    13.82999992  15.64000034  57.41000366
H    24.70000076  16.47999954  54.75000000
H    24.06999969  17.28000069  56.18999863
S    13.12000084  14.50000000  52.71999741
C    10.48999977  14.14999962  53.56999969
C    11.73999977  14.67000008  53.81000137
C    12.09000015  15.21999931  55.08999634
C    11.10999966  15.44999981  56.03000259
C     9.77000046  15.05000019  55.79999924
C     8.69999981  15.42000008  56.65999985
C     7.44000006  14.98000050  56.31999969
C     7.21000004  14.19000053  55.15999603
C     8.18000031  13.96000004  54.22000122
C     9.51000023  14.32999992  54.56999969
C    13.53000069  15.19999981  55.28999710
C    14.19000053  14.75999928  54.10999680
C    15.57000065  14.57999992  54.03999710
C     5.79999971  13.90999985  54.71000290
H     5.43751049  14.41464138  53.81443787
H    10.13000011  13.68999958  52.64999771
H    11.46999931  15.95999908  56.91999817
H     8.94999981  15.95999908  57.56000137
H     6.57000017  15.07999992  56.97000122
H     8.02999973  13.36999989  53.30999756
H    16.03000069  14.29999924  53.09999847
H     5.09000015  14.23999977  55.47999954
H     5.71000004  12.82999992  54.54999924
