96

S    15.98000050  15.11999989  64.33000183
C    18.68000031  14.94999981  63.77999878
C    17.39999962  14.92000008  63.29000092
C    17.09000015  14.59000015  61.93000031
C    18.12999916  14.32999992  61.05999756
C    19.45000076  14.60000038  61.47999573
C    20.50000000  14.50000000  60.52000046
C    21.78999901  14.57999992  60.97000122
C    22.10000038  14.96999931  62.29999924
C    21.09999847  15.11999989  63.23999786
C    19.75000000  14.86999989  62.85999680
C    15.64000034  14.61999989  61.77000046
C    14.89999962  14.96000099  62.93000031
C    13.50999928  14.96999931  62.97000122
C    23.54000092  15.21000004  62.70999908
H    23.79654312  14.85369205  63.70766068
H    18.89999962  15.21999931  64.80999756
H    17.97999954  14.06000042  60.01999664
H    20.40999985  14.28999996  59.45000076
H    22.62000084  14.68999958  60.27000046
H    21.31999969  15.48999977  64.23999786
H    12.97000027  15.17000008  63.88999939
H    24.27000046  14.75999928  62.02999878
H    23.64999962  16.29999924  62.75000000
S    12.36999989  13.66000080  59.45999908
C     9.65999985  13.52000046  60.19000244
C    10.95999908  13.82999992  60.51000214
C    11.30000019  14.51000023  61.72999954
C    10.32999992  14.70000076  62.69000244
C     8.96000004  14.46000004  62.42000198
C     7.88999987  14.80999947  63.29999924
C     6.57999992  14.50000000  63.00000000
C     6.30000019  13.90999985  61.73999786
C     7.30000019  13.57999992  60.84999847
C     8.65999985  13.88000011  61.13999939
C    12.74000072  14.72000027  61.83000183
C    13.48000050  14.23999977  60.72000122
C    14.85999966  14.07999992  60.72999954
C     4.88999987  13.50000000  61.38999939
H     4.41367579  14.11851120  60.62930298
H     9.34000015  13.21000004  59.20000076
H    10.51000023  15.11000061  63.68000031
H     8.14000034  15.24000072  64.26000214
H     5.86000013  14.57999992  63.80000305
H     7.07999992  12.94999981  59.99000168
H    15.14999962  13.53999996  59.84000397
H     4.21000004  13.45999908  62.25000000
H     4.99000025  12.43999958  61.11999893
S    16.57999992  15.57999992  58.13000107
C    19.27999878  15.65999985  57.38999939
C    17.97000122  15.43000031  57.04000092
C    17.59000015  15.17000008  55.68999863
C    18.52000046  15.21999931  54.65000153
C    19.85000038  15.52000046  55.01999664
C    20.93000031  15.50000000  54.09000015
C    22.21999931  15.82999992  54.41999817
C    22.52000046  16.29999924  55.72999954
C    21.54000092  16.31999969  56.70000076
C    20.25000000  15.84000015  56.36000061
C    16.15999985  14.96000099  55.56999969
C    15.47999954  15.32999992  56.76000214
C    14.09999943  15.42000008  56.86999893
C    23.95999908  16.54000092  56.10000229
H    24.34504318  15.78417397  56.78451920
H    19.55000114  15.92000008  58.40999985
H    18.29000092  14.78000069  53.68999863
H    20.73999786  15.18000031  53.06999969
H    23.05000114  15.65000057  53.74000168
H    21.70999908  16.52000046  57.75000000
H    13.60000038  15.54999924  57.83000183
H    24.54000092  16.47999954  55.17000198
H    24.11000061  17.56999969  56.45999908
S    12.94999981  14.37000084  53.20999908
C    10.25000000  14.48999977  53.81000137
C    11.54000092  14.67000008  54.25000000
C    11.90000057  15.03999901  55.59000015
C    10.88000107  15.15999985  56.52000046
C     9.55000019  14.85999966  56.13999939
C     8.47999954  14.93000031  57.08000183
C     7.18999958  14.67000008  56.70000076
C     6.89000034  14.37999916  55.34999847
C     7.86999989  14.32999992  54.38999939
C     9.21000004  14.65000057  54.75999832
C    13.34000015  15.11999989  55.72999954
C    14.04000092  14.77000046  54.54999924
C    15.42000008  14.65000057  54.41999817
C     5.51000023  13.88000011  54.99000168
H     5.16801023  14.40723419  54.09940338
H    10.00000000  14.11000061  52.83000183
H    11.18999958  15.31999969  57.55000305
H     8.80999947  15.11000061  58.09999847
H     6.30999994  14.63999939  57.34000397
H     7.73999977  13.94999981  53.37999725
H    15.86999989  14.65000057  53.43000031
H     4.80999994  14.09999943  55.80999756
H     5.44000053  12.77999973  54.91000366
