96

S    15.93999958  15.03999901  64.04000092
C    18.67000008  14.98999977  63.39000320
C    17.36999893  14.75000000  63.02000046
C    17.10000038  14.35999966  61.66999817
C    18.07999992  14.28999996  60.70000076
C    19.42000008  14.56999969  61.06999969
C    20.48999977  14.50000000  60.13000107
C    21.76000214  14.82999992  60.54999924
C    22.01999855  15.40999985  61.81999969
C    21.00000000  15.46000004  62.75000000
C    19.70000076  14.96999931  62.42000198
C    15.65999985  14.32999992  61.44000244
C    14.94999981  14.65999985  62.62000275
C    13.55999947  14.53999996  62.61000061
C    23.42000008  15.81999969  62.18999863
H    23.87315941  15.11901951  62.89097977
H    18.88000107  15.51000023  64.31999969
H    17.87999916  13.86000061  59.72000122
H    20.38000107  14.11999893  59.12000275
H    22.53999901  14.73000050  59.80999756
H    21.21000099  15.64000034  63.80000305
H    13.12999916  14.55000019  63.60000229
H    24.07999992  16.07999992  61.35000229
H    23.35000038  16.79000092  62.70000076
S    12.53000069  13.71999931  58.85000229
C     9.77999973  13.53999996  59.52999878
C    11.09000015  13.73999977  59.88999939
C    11.40999985  14.04999924  61.25000000
C    10.44000053  14.04000092  62.23999786
C     9.07999992  13.81999969  61.90999985
C     8.07999992  13.97999954  62.90999985
C     6.76000023  13.81000042  62.57999802
C     6.43000031  13.59000015  61.22000122
C     7.37999964  13.55000019  60.21999741
C     8.76999950  13.64999962  60.52000046
C    12.82999992  14.28999996  61.44000244
C    13.56999969  14.04000092  60.25000000
C    14.96000099  14.01999950  60.27000046
C     4.98000002  13.27999973  60.93000031
H     4.70178175  13.79363346  60.00974274
H     9.44999981  13.31999969  58.50999832
H    10.69000053  14.29999924  63.26000214
H     8.38999939  14.28999996  63.89999771
H     6.01000023  13.96000004  63.34999847
H     7.09999990  13.23999977  59.22000122
H    15.46000004  13.64999962  59.38000107
H     4.42999983  13.53000069  61.84999847
H     4.78999996  12.20000076  60.84000015
S    16.10000038  15.44000053  57.67000198
C    18.78000069  15.52000046  57.01000214
C    17.50000000  15.19999981  56.60999680
C    17.14999962  14.88999939  55.26000214
C    18.17000008  14.68999958  54.34000015
C    19.47999954  15.10000038  54.68000031
C    20.55999947  15.00000000  53.75999832
C    21.84999847  15.34000015  54.08000183
C    22.11000061  15.88000107  55.35999680
C    21.11999893  15.92000008  56.31999969
C    19.78000069  15.55999947  56.00999832
C    15.71000004  14.84000015  55.06000137
C    15.03999901  15.14000034  56.26999664
C    13.68000031  15.39999962  56.30000305
C    23.47999954  16.39999962  55.73999786
H    23.89462090  15.73517513  56.49775696
H    18.97999954  15.69000053  58.06999969
H    17.86999893  14.40000057  53.33000183
H    20.32999992  14.60999966  52.77000046
H    22.62000084  15.21000004  53.31999969
H    21.24000168  16.36999893  57.29999924
H    13.22000027  15.57000065  57.27000427
H    24.11000061  16.44000053  54.85000229
H    23.36000061  17.43999863  56.09000397
S    12.44999981  14.44000053  52.61000061
C     9.80000019  14.25000000  53.48999786
C    11.10000038  14.61999989  53.75000000
C    11.46000004  15.03999901  55.06999969
C    10.55999947  15.06000042  56.12999725
C     9.25000000  14.63000107  55.84000015
C     8.13000011  14.68999958  56.72000122
C     6.81999969  14.40000057  56.39999771
C     6.51000023  13.82999992  55.13999939
C     7.50999975  13.81000042  54.19000244
C     8.82999992  14.21000004  54.52999878
C    12.90999985  15.11999989  55.17000198
C    13.55999947  14.68999958  53.97999573
C    14.93999958  14.60999966  53.90999603
C     5.10999966  13.50999928  54.66999817
H     4.88171339  14.14492130  53.81392670
H     9.55000019  13.81999969  52.52999878
H    10.90999985  15.34999943  57.11000061
H     8.18000031  15.36000061  57.56999969
H     6.01000023  14.63999939  57.08000183
H     7.34000015  13.55999947  53.15000153
H    15.47000027  14.63000107  52.95999908
H     4.38000011  13.73999977  55.45999908
H     5.09999990  12.43999958  54.43999863
