96

S    16.18000031  15.39999962  64.31999969
C    18.86999893  15.54999924  63.67000198
C    17.61999893  15.11000061  63.31999969
C    17.20999908  14.67000008  62.02000046
C    18.22000122  14.55000019  61.07999802
C    19.57999992  14.75999928  61.45000076
C    20.58000183  14.52000046  60.47000122
C    21.84000015  14.96999931  60.77000046
C    22.17000008  15.47999954  62.05999756
C    21.21999931  15.82999992  62.98999786
C    19.90999985  15.34000015  62.71999741
C    15.77000046  14.59000015  61.84000015
C    15.07999992  15.10000038  62.95999908
C    13.69999981  15.29000092  62.95000076
C    23.61000061  15.88999939  62.28000259
H    24.10156059  15.17759514  62.94253540
H    19.05999947  16.11999893  64.58000183
H    17.88999939  14.22000027  60.10000229
H    20.40999985  14.06999969  59.50000000
H    22.57999802  14.75999928  60.00000000
H    21.47000122  16.36999893  63.88999939
H    13.19000053  15.34999943  63.89999771
H    24.23000145  15.90999985  61.38000107
H    23.55999947  16.93000031  62.62000275
S    12.55000019  13.81000042  59.43999863
C     9.94999981  13.43999958  60.33000183
C    11.18999958  13.97999954  60.56999969
C    11.51000023  14.70999908  61.75000000
C    10.51000023  14.89999962  62.69000244
C     9.22999954  14.32999992  62.50999832
C     8.14000034  14.63999939  63.37999725
C     6.84999990  14.32999992  63.02999878
C     6.57000017  13.45999908  61.95000076
C     7.60999966  13.15000057  61.10000229
C     8.96000004  13.53999996  61.33999634
C    12.94999981  14.89999962  61.83000183
C    13.64999962  14.40999985  60.68999863
C    15.03000069  14.25000000  60.70000076
C     5.13999987  13.05999947  61.65000153
H     4.78448915  13.59326649  60.76833344
H     9.68999958  13.14000034  59.31999969
H    10.67000008  15.31000042  63.68000031
H     8.47999954  15.31000042  64.15999603
H     6.01000023  14.63000107  63.64999771
H     7.37999964  12.76999950  60.11000061
H    15.65000057  13.89999962  59.87999725
H     4.53000021  13.27000046  62.54000092
H     5.12000036  11.97999954  61.45999908
S    16.59000015  15.48999977  57.90999985
C    19.34000015  15.59999943  57.22000122
C    18.02000046  15.39000034  56.88000107
C    17.57999992  15.13000011  55.54000092
C    18.57999992  15.06999969  54.59000015
C    19.93999863  15.36999893  54.84000397
C    21.00000000  15.36999893  53.88999939
C    22.34000015  15.44999981  54.20999908
C    22.70999908  15.70000076  55.56000137
C    21.70999908  15.71000004  56.50000000
C    20.31999969  15.59999943  56.20999908
C    16.13999939  15.21000004  55.31999969
C    15.46000004  15.43000031  56.53999710
C    14.06999969  15.44000053  56.59000015
C    24.18999863  15.78999996  55.86999893
H    24.54475784  15.26495934  56.75689316
H    19.52000046  15.82999992  58.27000046
H    18.23999977  14.80000019  53.59000397
H    20.71000099  15.25000000  52.84999847
H    23.12000084  15.39999962  53.46000290
H    21.94000053  15.71000004  57.56000137
H    13.57999992  15.81999969  57.48000336
H    24.70000076  15.43000031  54.97000122
H    24.30000114  16.87999916  55.90999985
S    12.89000034  14.75999928  52.84999847
C    10.18000031  14.37999916  53.57999802
C    11.47999954  14.67000008  53.92000198
C    11.89000034  14.88000011  55.27999878
C    10.90000057  14.78999996  56.24000168
C     9.52999973  14.68000031  55.90000153
C     8.51000023  14.89999962  56.86999893
C     7.20000029  14.70999908  56.50000000
C     6.88000011  14.32000065  55.17000198
C     7.78999996  14.18000031  54.15999985
C     9.15000057  14.40999985  54.54000092
C    13.32999992  15.05000019  55.47000122
C    14.00000000  14.98000050  54.22000122
C    15.39000034  15.01999950  54.15999985
C     5.44000053  14.00000000  54.82999802
H     5.08512259  14.29809761  53.84343719
H    10.01999950  14.17000008  52.51999664
H    11.23000050  14.91000080  57.27000427
H     8.73000050  15.36000061  57.83000183
H     6.42000008  14.86999989  57.23999786
H     7.55999994  13.99000072  53.11000061
H    15.98000050  14.92000008  53.26000214
H     4.76000023  14.37999916  55.59999847
H     5.31000042  12.90999985  54.82999802
