96

S    17.05999947   5.40000010  58.11999893
C    19.75000000   5.56999969  57.42000198
C    18.46999931   5.21000004  57.05999756
C    18.12000084   4.67999983  55.77999878
C    19.17000008   4.28999996  54.97000122
C    20.52000046   4.56999969  55.33000183
C    21.59000015   4.46999979  54.40000153
C    22.88000107   4.88000011  54.65000153
C    23.13999939   5.61999989  55.81999969
C    22.13999939   5.75999975  56.75000000
C    20.82999992   5.23999977  56.56999969
C    16.67000008   4.71000004  55.65999985
C    15.93000031   5.19000006  56.77000046
C    14.55000019   5.32999992  56.75000000
C    24.56000137   6.00000000  56.18999863
H    25.04149246   5.34857035  56.91931915
H    19.93000031   6.03999996  58.39000320
H    19.00000000   3.72000003  54.06999969
H    21.47999954   4.15999985  53.36000061
H    23.59999847   4.55000019  53.88999939
H    22.30999947   6.12999964  57.76000214
H    14.06000042   5.46999979  57.70999908
H    25.20000076   6.00000000  55.30000305
H    24.54999924   7.03999996  56.53999710
S    13.55000019   3.91000009  53.20000076
C    10.80000019   3.68000007  53.95000076
C    12.09000015   4.11999989  54.18000031
C    12.46000099   4.67000008  55.45000076
C    11.44999981   4.77999973  56.38999939
C    10.07999992   4.59000015  56.06999969
C     9.07999992   4.74000025  57.06999969
C     7.77999973   4.48000002  56.68000031
C     7.42999983   3.88000011  55.45000076
C     8.38999939   3.61999989  54.50000000
C     9.72000027   4.00000000  54.80999756
C    13.86999989   4.97000027  55.58000183
C    14.63000107   4.51000023  54.47000122
C    16.02000046   4.40000010  54.45999908
C     6.10000038   3.17999983  55.27999878
H     5.52388811   3.70632458  54.51896286
H    10.52999973   3.08999991  53.08000183
H    11.63000011   5.12000036  57.39999771
H     9.39000034   5.19999981  58.00000000
H     7.07999992   4.46000004  57.50999832
H     8.23999977   3.00999999  53.61000061
H    16.40999985   3.72000003  53.70999908
H     5.51999998   3.00999999  56.19999695
H     6.28999996   2.16000009  54.91000366
S    17.94000053   5.82999992  52.27000427
C    20.61000061   6.09000015  51.37000275
C    19.32999992   5.63000011  51.18999863
C    18.96000099   5.03999996  49.93000031
C    19.96000099   4.92000008  48.97999573
C    21.31000137   5.32000017  49.15000153
C    22.34999847   5.05000019  48.22000122
C    23.64999962   5.27999973  48.61000061
C    23.97999954   5.75000000  49.89999771
C    23.00000000   6.17999983  50.76000214
C    21.63999939   5.93999958  50.40999985
C    17.53000069   4.81999969  49.86000061
C    16.82999992   5.25000000  51.00999832
C    15.46000004   5.46000004  51.03000259
C    25.40999985   6.05999994  50.30000305
H    25.77147102   5.41502380  51.10090637
H    20.76000023   6.67000008  52.28000259
H    19.63999939   4.42999983  48.06999969
H    22.13000107   4.67999983  47.22000122
H    24.47999954   5.01999950  47.95999908
H    23.32999992   6.53999996  51.73999786
H    14.96000099   5.93999958  51.86999893
H    26.09000015   6.01999998  49.43999863
H    25.43000031   7.11999989  50.58000183
S    14.35999966   4.34999990  47.36999893
C    11.61000061   4.15999985  48.11000061
C    12.89999962   4.59999990  48.34000015
C    13.26000023   5.07999992  49.64000320
C    12.31999969   5.33999968  50.61000061
C    10.97000027   5.00999975  50.31000137
C     9.92999935   5.14999962  51.26999664
C     8.67000008   4.69000006  50.97999954
C     8.30999947   4.11000013  49.73999786
C     9.32999992   3.74000025  48.88999939
C    10.62000084   4.28000021  49.12000275
C    14.68999958   5.12000036  49.91000366
C    15.40999985   4.71000004  48.75999832
C    16.77999878   4.44999981  48.73000336
C     6.90000010   3.55999994  49.64000320
H     6.38706017   4.13705730  48.87059021
H    11.26999950   3.72000003  47.18000031
H    12.55000019   5.68000031  51.62000275
H    10.11000061   5.53999996  52.27000427
H     7.92999983   4.77999973  51.77000046
H     9.26000023   3.25999999  47.91999817
H    17.26000023   3.96000004  47.88999939
H     6.48000002   3.89999986  50.59000015
H     6.71000004   2.49000001  49.48999786
