96

S    17.29999924   5.23000002  57.95000076
C    19.96000099   5.07000017  57.43999863
C    18.70000076   4.80999994  56.93999863
C    18.40999985   4.38000011  55.59999847
C    19.52000046   4.15999985  54.80999756
C    20.82999992   4.48999977  55.21999741
C    21.94999886   4.17000008  54.40000153
C    23.23999786   4.48000002  54.78000259
C    23.45000076   5.09000015  56.04999924
C    22.40999985   5.23999977  56.93999863
C    21.07000160   4.94999981  56.56999969
C    16.97000122   4.42000008  55.44000244
C    16.25000000   4.88000011  56.56999969
C    14.85999966   4.90999985  56.63000107
C    24.89000130   5.35000038  56.42000198
H    25.33177757   4.53770399  56.99715805
H    20.09000015   5.60999966  58.36999893
H    19.37999916   3.53999996  53.93000031
H    21.73999977   3.63999987  53.47999954
H    24.07999992   4.21999979  54.15000153
H    22.67000008   5.53999996  57.95000076
H    14.35999966   4.94999981  57.58999634
H    25.52999878   5.55999994  55.56000137
H    24.73999977   6.28000021  56.97999954
S    13.71999931   3.44000006  53.15000153
C    11.00999928   3.49000001  53.92000198
C    12.31999969   3.82999992  54.16999817
C    12.71000004   4.46999979  55.38999939
C    11.77999973   4.63999987  56.40999603
C    10.40999985   4.51999998  56.09000397
C     9.39000034   4.69999981  57.06999969
C     8.05000019   4.48999977  56.81999969
C     7.69000006   3.89999986  55.58000183
C     8.64999962   3.60000014  54.64000320
C    10.01999950   3.91000009  54.85000229
C    14.15999985   4.55999994  55.47000122
C    14.86999989   4.11000013  54.33000183
C    16.23999977   3.93000007  54.34000015
C     6.28999996   3.35000014  55.45999908
H     5.79152966   3.69892931  54.55563354
H    10.77000046   3.01999998  52.97000122
H    12.01000023   4.94999981  57.42000198
H     9.71000004   5.00999975  58.06000137
H     7.40999985   4.42000008  57.69000244
H     8.36999989   3.00999999  53.76999664
H    16.72999954   3.45999980  53.48999786
H     5.72000027   3.68000007  56.33999634
H     6.44000006   2.26999998  55.47999954
S    13.81999969   1.53999996  50.26000214
C    11.16000080   0.87000000  50.89000320
C    12.48999977   0.83999997  51.22000122
C    13.01000023   0.24000001  52.41000366
C    12.05999947  -0.29999998  53.26000214
C    10.67000008  -0.28999999  53.00000000
C     9.68999958  -0.81000000  53.88000107
C     8.36000061  -0.73000002  53.55999756
C     7.90999985  -0.12000000  52.36000061
C     8.82000065   0.34999999  51.44000244
C    10.21000004   0.28999999  51.76000214
C    14.45000076   0.38000000  52.56000137
C    15.03000069   1.08000004  51.46999741
C    16.35000038   1.50000000  51.52000046
C     6.43000031  -0.17000002  52.06999969
H     6.08069086  -0.50505161  51.09336090
H    10.69000053   1.47000003  50.11000061
H    12.38999939  -0.96000004  54.06000137
H    10.19000053  -1.30999994  54.71000290
H     7.68000031  -1.35000002  54.13999939
H     8.43999958   0.69000000  50.47999954
H    16.72999954   2.20000005  50.77999878
H     5.92999983  -0.71000004  52.88000107
H     6.14000034   0.88000000  52.25999832
S    17.81999969  -0.29999998  54.75999832
C    20.40999985   0.32999998  54.13999939
C    19.07999992   0.56000000  53.85000229
C    18.60999870   1.25999999  52.69000244
C    19.52999878   1.79000008  51.79999924
C    20.89999962   1.63000000  52.09999847
C    21.87000084   2.27999997  51.27999878
C    23.22000122   2.09999990  51.49000168
C    23.68000031   1.42000008  52.64999771
C    22.76000023   0.88000000  53.52000427
C    21.35999870   0.96000004  53.29000092
C    17.19000053   1.00000000  52.52999878
C    16.62999916   0.17000002  53.53000259
C    15.26999950  -0.13000000  53.57999802
C    25.17999840   1.29999995  52.81999969
H    25.52888870   1.32136071  53.85243225
H    20.72999954  -0.34000003  54.93000031
H    19.19000053   2.23000002  50.86999893
H    21.54999924   2.82000017  50.40000153
H    23.82999802   2.59999990  50.75000000
H    23.18000031   0.50999999  54.45000076
H    14.84000015  -0.75000000  54.36000061
H    25.62999916   2.13000011  52.27000427
H    25.51000214   0.34000003  52.41000366
