96

S    17.20000076   5.32000017  58.18000031
C    19.90999985   5.32000017  57.52999878
C    18.60999870   5.14999962  57.11999893
C    18.23999977   4.71000004  55.80999756
C    19.27000046   4.48999977  54.91000366
C    20.62000084   4.63999987  55.31000137
C    21.64999962   4.46000004  54.34000015
C    22.95000076   4.72000027  54.69999695
C    23.31000137   5.28999996  55.94999695
C    22.32000160   5.52999973  56.88000107
C    20.97999954   5.15999985  56.60999680
C    16.79999924   4.61999989  55.61999893
C    16.11999893   4.98000002  56.81000137
C    14.73000050   5.09999990  56.84000015
C    24.77000046   5.51000023  56.26999664
H    25.09017181   4.93369293  57.13801956
H    20.22000122   5.59999990  58.53000259
H    19.05999947   4.32000017  53.86000061
H    21.30000114   4.13000011  53.36999893
H    23.62999916   4.15999985  54.06999969
H    22.49000168   5.88000011  57.90000153
H    14.27000046   5.32999992  57.80000305
H    25.43000031   5.32000017  55.40999985
H    24.90999985   6.57000017  56.52999878
S    13.60000038   4.00000000  53.20999908
C    10.93999958   3.54999995  53.90999603
C    12.17000008   4.07000017  54.25000000
C    12.53999901   4.55999994  55.54999924
C    11.46000004   4.90000010  56.33999634
C    10.14999962   4.42000008  56.12999725
C     9.02999973   4.44000006  57.01000214
C     7.77999973   3.97000027  56.66999817
C     7.55000019   3.44000006  55.38000107
C     8.61999989   3.28999996  54.52999878
C     9.92999935   3.73000002  54.88999939
C    13.96999931   4.76999998  55.70999908
C    14.68999958   4.51999998  54.51000214
C    16.06999969   4.40000010  54.43999863
C     6.10000038   3.15000010  55.04000092
H     5.62294436   3.78370070  54.29237747
H    10.77000046   3.23000002  52.88999939
H    11.65999985   5.35000038  57.30999756
H     9.10000038   4.86999989  58.01000214
H     6.98000002   4.09000015  57.38999939
H     8.48999977   2.80999994  53.56999969
H    16.56999969   3.98000002  53.56999969
H     5.51000023   3.42999983  55.91999817
H     5.92000008   2.09000015  54.81999969
S    17.78000069   5.71000004  52.05999756
C    20.43000031   5.92999983  51.40999603
C    19.19999886   5.46000004  51.03000259
C    18.86000061   4.90999985  49.75000000
C    19.92000008   4.71000004  48.88000107
C    21.18999863   5.21000004  49.22999954
C    22.25000000   5.05999994  48.29999924
C    23.54999924   5.36999989  48.66000366
C    23.88000107   6.01000023  49.87999725
C    22.85000038   6.19000006  50.77000046
C    21.50000000   5.86000013  50.47999954
C    17.42000008   4.94000006  49.52000046
C    16.72000122   5.33999968  50.68999863
C    15.34999943   5.53999996  50.73999786
C    25.29999924   6.32999992  50.28999710
H    25.67971039   5.52042627  50.91330338
H    20.59999847   6.28000021  52.43000031
H    19.68000031   4.19000006  47.95000076
H    22.00000000   4.65000010  47.31999969
H    24.40999985   5.10999966  48.06000137
H    23.05000114   6.57999992  51.77000046
H    14.84000015   5.88000011  51.63999939
H    25.90999985   6.44999981  49.38000107
H    25.29999924   7.28999996  50.83000183
S    14.19999981   4.26000023  47.18999863
C    11.54999924   3.84999990  47.97000122
C    12.79999924   4.32000017  48.27999878
C    13.12999916   4.94999981  49.52000046
C    12.10000038   5.17000008  50.41999817
C    10.78999996   4.69999981  50.15999603
C     9.76000023   4.80999994  51.13999939
C     8.51000023   4.26999998  50.91999817
C     8.19000053   3.75000000  49.64000320
C     9.13999939   3.73000002  48.64999771
C    10.50000000   4.05000019  48.90999603
C    14.56999969   5.14999962  49.65000153
C    15.29999924   4.75000000  48.50000000
C    16.67000008   4.55999994  48.40000153
C     6.76999998   3.31999993  49.36000061
H     6.25515270   3.99216199  48.67353821
H    11.35000038   3.45999980  46.97000122
H    12.28000069   5.55000019  51.42000198
H     9.94999981   5.38000011  52.04999924
H     7.76999998   4.38000011  51.70999908
H     8.76999950   3.61000013  47.63000107
H    17.13000107   4.13999987  47.50999832
H     6.21000004   3.16000009  50.28999710
H     6.80000019   2.38000011  48.79000092
