96

S    17.07999992   5.10999966  58.04999924
C    19.76000023   5.32000017  57.31999969
C    18.48999977   4.88999987  57.00000000
C    18.12999916   4.42000008  55.70000076
C    19.13999939   4.32000017  54.75999832
C    20.48999977   4.56999969  55.10000229
C    21.54999924   4.23000002  54.20999908
C    22.85000038   4.50000000  54.55999756
C    23.16999817   5.18000031  55.76000214
C    22.19000053   5.35000038  56.70999908
C    20.81999969   5.09999990  56.39999771
C    16.69999886   4.19000006  55.61000061
C    15.97000027   4.56999969  56.77000046
C    14.59000015   4.69999981  56.84999847
C    24.61000061   5.59000015  55.98999786
H    25.09510803   5.01928473  56.78186417
H    19.92000008   5.75000000  58.30999756
H    18.92000008   3.89999986  53.79000092
H    21.40999985   3.67000008  53.27999878
H    23.64000130   4.28000021  53.86000061
H    22.32000160   5.66999960  57.74000168
H    14.11999893   5.19999981  57.69000244
H    25.10000038   5.44000053  55.00999832
H    24.56000137   6.67000008  56.18000031
S    13.50000000   3.28000021  53.27999878
C    10.80999947   3.31999993  53.94000244
C    12.09000015   3.75000000  54.23999786
C    12.46999931   4.30000019  55.51000214
C    11.44000053   4.59999990  56.38999939
C    10.11000061   4.18000031  56.18999863
C     9.07999992   4.18000031  57.16999817
C     7.77999973   3.82999992  56.88000107
C     7.46999979   3.19999981  55.65000153
C     8.52999973   2.94999981  54.80999756
C     9.85000038   3.45000005  54.97000122
C    13.90999985   4.30999994  55.68999863
C    14.60000038   3.71000004  54.59999847
C    15.98999977   3.68000007  54.51000214
C     6.02999973   2.89000010  55.28999710
H     5.73265743   3.39265060  54.36965561
H    10.57000065   2.75999999  53.04000092
H    11.68000031   4.86000013  57.42000198
H     9.31999969   4.59999990  58.13999939
H     7.04999971   4.11999989  57.63000107
H     8.30000019   2.38000011  53.90999603
H    16.60000038   3.51999998  53.62999725
H     5.47999954   3.35000014  56.11999893
H     5.78000021   1.81999993  55.31999969
S    14.09000015   1.30999994  50.34999847
C    11.49000072   0.64000005  50.98999786
C    12.81999969   0.59000003  51.35000229
C    13.34000015  -0.02000000  52.54000092
C    12.42000008  -0.57999998  53.40999985
C    11.03999996  -0.46999997  53.11999893
C    10.05000019  -0.88000000  54.06000137
C     8.69999981  -0.92000002  53.79000092
C     8.23000050  -0.32000002  52.60000229
C     9.13000011   0.25000000  51.72999954
C    10.53999996   0.09999999  51.88999939
C    14.75999928   0.22000000  52.72999573
C    15.26999950   0.97999996  51.63999939
C    16.61000061   1.30999994  51.52999878
C     6.77999973   0.05000000  52.36999893
H     6.44551945  -0.21331437  51.36656189
H    11.19999981   1.13000000  50.06999969
H    12.58999920  -0.97000003  54.40999985
H    10.39999962  -1.23000002  55.02999878
H     7.96999979  -1.11000001  54.58000183
H     8.82999992   0.99000001  51.00000000
H    16.98999977   1.81999993  50.65000153
H     6.17000008  -0.50000000  53.09999847
H     6.52999973   1.08999991  52.63000107
S    18.23999977  -0.16000001  54.88999939
C    20.86000061   0.50999999  54.06999969
C    19.51000023   0.48999998  53.81999969
C    18.92000008   1.00000000  52.62000275
C    19.72999954   1.57000005  51.65999985
C    21.12999916   1.66999996  51.84999847
C    22.00000000   2.26999998  50.90000153
C    23.36999893   2.32999992  51.06999969
C    23.90999985   1.85000002  52.29000092
C    23.05999947   1.35000002  53.25000000
C    21.65999985   1.13000000  53.08000183
C    17.46999931   0.90999997  52.56000137
C    16.97999954   0.22000000  53.69999695
C    15.64000034  -0.16000001  53.75000000
C    25.39999962   1.87000012  52.54000092
H    25.74045181   1.35932302  53.44078064
H    21.30000114   0.00000000  54.92000198
H    19.30999947   2.05999994  50.77999878
H    21.65999985   2.75000000  49.99000168
H    23.95999908   2.77999997  50.27999878
H    23.44000053   1.13999999  54.23999786
H    15.27999973  -0.82000005  54.52999878
H    25.65999985   2.92000008  52.67000198
H    25.84000015   1.49000001  51.60999680
