96

S    17.00000000   5.32000017  58.30999756
C    19.68000031   5.59999990  57.58999634
C    18.43000031   5.13000011  57.27000427
C    18.12000084   4.76000023  55.91999817
C    19.14999962   4.73000002  55.00999832
C    20.43000031   5.28999996  55.26000214
C    21.54000092   5.25000000  54.36999893
C    22.79000092   5.75999975  54.68000031
C    22.98999977   6.34000015  55.96000290
C    21.96000099   6.32999992  56.86999893
C    20.68000031   5.78000021  56.59000015
C    16.68000031   4.59000015  55.75000000
C    15.95999908   4.97000027  56.91999817
C    14.57999992   4.99000025  57.02000046
C    24.36000061   6.74000025  56.47999573
H    24.92077827   5.86689138  56.81362534
H    20.02000046   5.80999947  58.60000229
H    18.90999985   4.25000000  54.06000137
H    21.34000015   4.73000002  53.43999863
H    23.67000198   5.50000000  54.09999847
H    22.06000137   6.63000011  57.90999985
H    14.04000092   5.26000023  57.91999817
H    24.82999992   7.14999962  55.58000183
H    24.23000145   7.51999950  57.23999786
S    13.57999992   3.98999977  53.27999878
C    10.90000057   3.75999975  53.92000198
C    12.13999939   4.23000002  54.27999878
C    12.46999931   4.76000023  55.56999969
C    11.44999981   4.88000011  56.50000000
C    10.14000034   4.51000023  56.14999771
C     9.10000038   4.53000021  57.12999725
C     7.79999971   4.23000002  56.79999924
C     7.53999996   3.82999992  55.45999908
C     8.47999954   3.81000018  54.47000122
C     9.85000038   3.98000002  54.84000397
C    13.90999985   4.80999994  55.80999756
C    14.61999989   4.42999983  54.65000153
C    15.98999977   4.18000031  54.59999847
C     6.07999992   3.65000010  55.10000229
H     5.64598131   4.06267357  54.18927383
H    10.70000076   3.40999985  52.90999985
H    11.71000004   5.13999987  57.51999664
H     9.25000000   5.00000000  58.09000015
H     7.02000046   4.46000004  57.51999664
H     8.17000008   3.58000016  53.44999695
H    16.51000023   3.98000002  53.67000198
H     5.46999979   4.05000019  55.91999817
H     5.86999989   2.56999993  55.07999802
S    17.38999939   5.86000013  52.04000092
C    20.13999939   5.86999989  51.36000061
C    18.81999969   5.73000002  51.00999832
C    18.45999908   5.22000027  49.72000122
C    19.47000122   4.92000008  48.82999802
C    20.81999969   5.25000000  49.08000183
C    21.94000053   5.09000015  48.20999908
C    23.23999786   5.46000004  48.44999695
C    23.48999977   6.12999964  49.68000031
C    22.46999931   6.28999996  50.59000015
C    21.12999916   5.86000013  50.34000015
C    17.02000046   5.15999985  49.51000214
C    16.31000137   5.63000011  50.65000153
C    14.92000008   5.64000034  50.66999817
C    24.86000061   6.51000023  50.19000244
H    25.28741455   5.78339577  50.88098907
H    20.34000015   6.34000015  52.31999969
H    19.19000053   4.72000027  47.80000305
H    21.73999977   4.67000008  47.22000122
H    24.01000023   5.23999977  47.70999908
H    22.72999954   6.46000004  51.63000107
H    14.46000004   6.05999994  51.56000137
H    25.43000031   6.71000004  49.27000046
H    24.63000107   7.48000050  50.65000153
S    13.81999969   4.53000021  47.00000000
C    11.10000038   4.32000017  47.76000214
C    12.39999962   4.69000006  48.04000092
C    12.79000092   5.12000036  49.34999847
C    11.84000015   5.36999989  50.33000183
C    10.47999954   5.05999994  50.06000137
C     9.47000027   5.23999977  51.04000092
C     8.19999981   4.79999971  50.77999878
C     7.88999987   4.18000031  49.52999878
C     8.78999996   4.15000010  48.47999954
C    10.14000034   4.46999979  48.79000092
C    14.22999954   5.26999998  49.51000214
C    14.93000031   4.90999985  48.33000183
C    16.31000137   4.76999998  48.36999893
C     6.48999977   3.75000000  49.18000031
H     5.93407631   4.54824924  48.68822098
H    10.84000015   3.84000015  46.81999969
H    12.15000057   5.75000000  51.30000305
H     9.71000004   5.56999969  52.04999924
H     7.40999985   4.98000002  51.51000214
H     8.57999992   3.79999995  47.48000336
H    16.80999947   4.35999966  47.49000168
H     5.98999977   3.49000001  50.12000275
H     6.42000008   2.82000017  48.60000229
