96

S    17.19000053   5.28999996  57.91999817
C    19.92000008   5.35000038  57.25000000
C    18.63000107   5.03999996  56.90999985
C    18.27999878   4.42999983  55.65999985
C    19.29000092   4.15000010  54.75999832
C    20.62000084   4.59999990  54.97000122
C    21.70999908   4.44000006  54.06999969
C    23.00000000   4.76000023  54.41999817
C    23.29000092   5.32000017  55.68999863
C    22.27999878   5.40000010  56.62000275
C    20.93000031   5.12000036  56.27999878
C    16.84000015   4.28999996  55.47000122
C    16.13000107   4.79999971  56.59000015
C    14.75999928   5.05000019  56.59999847
C    24.71999931   5.61999989  56.07999802
H    25.14730453   4.93631268  56.81353760
H    20.13999939   5.77000046  58.22999954
H    19.05999947   3.58999991  53.86000061
H    21.63999939   3.88000011  53.13999939
H    23.77000046   4.76999998  53.64999771
H    22.47999954   5.58000040  57.67000198
H    14.34000015   5.58000040  57.44999695
H    25.38999939   5.59999990  55.21999741
H    24.76000023   6.60000038  56.56999969
S    13.68000031   3.73000002  53.00000000
C    10.95999908   3.70000005  53.69999695
C    12.25999928   4.05000019  54.00000000
C    12.63000011   4.61999989  55.26000214
C    11.61999893   4.76999998  56.19999695
C    10.26000023   4.48999977  55.90999985
C     9.31999969   4.55999994  56.97999954
C     8.01999950   4.18000031  56.72999954
C     7.62000036   3.71000004  55.44000244
C     8.57999992   3.47000003  54.47999954
C     9.92000008   3.93000007  54.62999725
C    14.06999969   4.63999987  55.45999908
C    14.75999928   4.07000017  54.36999893
C    16.13999939   3.86999989  54.33000183
C     6.21000004   3.23000002  55.19000244
H     5.75553608   3.79097867  54.37338257
H    10.65000057   3.22000003  52.77000046
H    11.85999966   4.99000025  57.22999954
H     9.68000031   5.03999996  57.88000107
H     7.26999998   4.38000011  57.48000336
H     8.27000046   2.94000006  53.59000397
H    16.63999939   3.35000014  53.52000427
H     5.60999966   3.50000000  56.06999969
H     6.11999989   2.17999983  54.91000366
S    17.15999985   5.64000034  51.95000076
C    19.89999962   5.29999971  51.39999771
C    18.59000015   5.17000008  51.00000000
C    18.25000000   4.71000004  49.68999863
C    19.23999977   4.51000023  48.75000000
C    20.59999847   4.67999983  49.12000275
C    21.68999863   4.59000015  48.20000076
C    23.01000214   4.88999987  48.46000290
C    23.31000137   5.38000011  49.75000000
C    22.29999924   5.46999979  50.66999817
C    20.93000031   5.14999962  50.44000244
C    16.80999947   4.74000025  49.45999908
C    16.10999870   5.25000000  50.58000183
C    14.72000027   5.35000038  50.59000015
C    24.65999985   5.93999958  50.13999939
H    25.20078087   5.24979401  50.78751373
H    20.05000114   5.77000046  52.36999893
H    18.93000031   4.30000019  47.72999573
H    21.31000137   4.42999983  47.19999695
H    23.80000114   4.94000006  47.71999741
H    22.42000198   5.73999977  51.72000122
H    14.29999924   5.73000002  51.52000046
H    25.22999954   6.05999994  49.20999908
H    24.54000092   6.89000034  50.66999817
S    13.59000015   4.05999994  47.02999878
C    10.85999966   4.05000019  47.69000244
C    12.15999985   4.34999990  48.04000092
C    12.51999950   4.90000010  49.31000137
C    11.51999950   4.98000002  50.27000046
C    10.17000008   4.63000011  50.00999832
C     9.10000038   4.77999973  50.93999863
C     7.78999996   4.57999992  50.56000137
C     7.46999979   4.26999998  49.20999908
C     8.50000000   3.91000009  48.36999893
C     9.86999989   4.13000011  48.69999695
C    13.96000004   4.94999981  49.47999954
C    14.68999958   4.55000019  48.33000183
C    16.05999947   4.28999996  48.36999893
C     6.07999992   3.82999992  48.83999634
H     5.64024878   4.38323545  48.01014709
H    10.59000015   3.76999998  46.68000031
H    11.85999966   5.33999968  51.24000168
H     9.28999996   4.94000006  51.98999786
H     7.00999975   4.69000006  51.30000305
H     8.32999992   3.52999973  47.36000061
H    16.52000046   3.86999989  47.48000336
H     5.36999989   3.82999992  49.66999817
H     6.09000015   2.76999998  48.56999969
