96

S    17.79999924   5.36999989  58.04999924
C    20.45000076   5.58000040  57.35000229
C    19.19999886   5.15999985  56.97000122
C    18.79999924   4.69999981  55.68000031
C    19.81999969   4.50000000  54.75999832
C    21.14999962   4.82999992  55.10000229
C    22.19000053   4.39000034  54.23999786
C    23.48999977   4.76000023  54.47999954
C    23.82999802   5.36999989  55.72000122
C    22.84000015   5.72000027  56.60999680
C    21.47000122   5.40000010  56.38000107
C    17.35999870   4.55000019  55.52999878
C    16.69999886   4.92999983  56.72000122
C    15.31999969   5.00000000  56.79999924
C    25.28000069   5.60999966  56.09000397
H    25.61423874   5.04108286  56.95759583
H    20.69000053   6.02999973  58.31999969
H    19.52999878   4.15000010  53.76999664
H    21.93000031   3.73000002  53.40999985
H    24.27999878   4.65000010  53.74000168
H    23.11000061   6.17999983  57.55000305
H    14.75999928   5.26999998  57.70000076
H    25.98999977   5.69999981  55.26000214
H    25.12000084   6.65999985  56.38000107
S    14.06999969   3.91999984  53.18000031
C    11.39000034   4.00000000  53.88000107
C    12.69000053   4.28999996  54.23999786
C    13.07999992   4.73000002  55.54000092
C    12.05000019   5.05999994  56.39999771
C    10.69000053   4.76000023  56.12999725
C     9.68000031   4.90999985  57.11999893
C     8.38000011   4.55999994  56.83000183
C     8.05999947   4.11000013  55.52000046
C     8.97999954   4.11000013  54.51000214
C    10.36000061   4.32000017  54.79999924
C    14.52999973   4.72000027  55.68000031
C    15.19999981   4.25000000  54.51000214
C    16.57999992   4.11000013  54.45999908
C     6.61999989   3.67000008  55.34000015
H     6.12928009   4.09671259  54.46523666
H    11.21999931   3.54999995  52.90999985
H    12.15000057   5.49000025  57.39999771
H     9.98999977   5.35000038  58.06000137
H     7.59999990   4.51999998  57.58999634
H     8.69000053   3.68999982  53.54999924
H    16.97999954   3.61999989  53.56999969
H     5.96000004   3.88999987  56.18999863
H     6.48000002   2.57999992  55.22999573
S    17.79000092   5.75000000  51.91999817
C    20.45000076   5.86999989  51.18000031
C    19.19000053   5.40000010  50.89000320
C    18.86000061   4.73000002  49.66999817
C    19.86999893   4.36999989  48.80000305
C    21.18000031   4.81999969  49.06999969
C    22.18000031   4.57999992  48.09000015
C    23.44000053   5.07000017  48.33000183
C    23.78000069   5.80999947  49.50000000
C    22.79999924   6.09000015  50.43000031
C    21.48999977   5.55999994  50.26000214
C    17.40999985   4.65000010  49.52999878
C    16.70999908   5.07000017  50.68999863
C    15.34000015   5.27999973  50.68000031
C    25.20000076   6.28999996  49.69999695
H    25.66325951   5.76259708  50.53386688
H    20.72999954   6.57999992  51.95000076
H    19.78000069   3.75999975  47.90000153
H    21.78999901   4.15000010  47.16999817
H    24.18999863   4.88999987  47.56999969
H    22.88000107   6.84000015  51.22000122
H    14.81999969   5.52999973  51.59999847
H    25.82999992   6.05999994  48.82999802
H    25.22000122   7.37999964  49.75000000
S    14.19000053   3.95000005  47.11999893
C    11.44999981   4.03999996  47.71999741
C    12.74000072   4.32000017  48.09000015
C    13.12999916   4.86999989  49.34999847
C    12.11999989   5.19999981  50.22999573
C    10.77000046   4.90000010  49.93000031
C     9.68999958   5.14999962  50.81999969
C     8.36000061   4.86999989  50.58000183
C     8.05000019   4.11000013  49.41999817
C     9.04999924   4.00999975  48.47000122
C    10.42000008   4.30999994  48.66000366
C    14.56999969   4.85000038  49.59000015
C    15.26999950   4.32999992  48.47999954
C    16.64999962   4.17000008  48.44999695
C     6.69000053   3.47000003  49.26000214
H     6.08316088   3.99830723  48.52465439
H    11.25000000   3.65000010  46.72000122
H    12.38999939   5.65000010  51.18000031
H     9.98999977   5.59999990  51.76000214
H     7.60999966   5.01999950  51.35000229
H     8.75000000   3.54999995  47.52999878
H    17.13000107   3.65999985  47.62000275
H     6.24000025   3.38999987  50.26000214
H     7.05999947   2.50000000  48.90999603
