96

S    17.20000076   5.29999971  57.97999954
C    19.89999962   5.42999983  57.30999756
C    18.63999939   4.96000004  57.01000214
C    18.27000046   4.41000032  55.73999786
C    19.29000092   4.13999987  54.85000229
C    20.62000084   4.51999998  55.10000229
C    21.56999969   4.51999998  54.03999710
C    22.79999924   5.09000015  54.31000137
C    23.06999969   5.82000017  55.50000000
C    22.13999939   5.91000032  56.51000214
C    20.89999962   5.23999977  56.31999969
C    16.82999992   4.40000010  55.52000046
C    16.10999870   4.88000011  56.63999939
C    14.73000050   5.05999994  56.62000275
C    24.47000122   6.28999996  55.81999969
H    24.79717636   5.72811270  56.69483566
H    20.09000015   6.03999996  58.18999863
H    19.07999992   3.84999990  53.81999969
H    21.32999802   4.09999990  53.06999969
H    23.57999992   4.88000011  53.59000397
H    22.26000023   6.50000000  57.41000366
H    14.19000053   5.53999996  57.43000031
H    25.10000038   6.06999969  54.94999695
H    24.47999954   7.37999964  55.90999985
S    13.66000080   3.63999987  53.06999969
C    10.90999985   3.78999996  53.61000061
C    12.20000076   4.11000013  53.95999908
C    12.61999989   4.67000008  55.20999908
C    11.54999924   4.94000006  56.04999924
C    10.21000004   4.57999992  55.79999924
C     9.26000023   4.69000006  56.86000061
C     7.95000029   4.30999994  56.65999985
C     7.59000015   3.78999996  55.38999939
C     8.48999977   3.61000013  54.36999893
C     9.85000038   3.98999977  54.54000092
C    14.04999924   4.65999985  55.45999908
C    14.77000046   4.11000013  54.36999893
C    16.14999962   3.96000004  54.36999893
C     6.19999981   3.24000001  55.17000198
H     5.73096561   3.80852652  54.36695480
H    10.80000019   3.24000001  52.68000031
H    11.64999962   5.51000023  56.97000122
H     9.65999985   4.98000002  57.83000183
H     7.22000027   4.26999998  57.45999908
H     8.19999981   3.25999999  53.37999725
H    16.68000031   3.53999996  53.52000427
H     5.71000004   3.38000011  56.13999939
H     6.25000000   2.16000009  54.99000168
S    14.06999969   1.77999997  50.19000244
C    11.40999985   1.26999998  50.91999817
C    12.75000000   1.08999991  51.17000198
C    13.22999954   0.48999998  52.36999893
C    12.31999969  -0.13000000  53.20999908
C    10.93000031  -0.05000000  52.94000244
C     9.92000008  -0.55000001  53.81000137
C     8.57999992  -0.27000001  53.61999893
C     8.14000034   0.38000000  52.43999863
C     9.09000015   0.86000001  51.56000137
C    10.47000027   0.57999998  51.72999954
C    14.68000031   0.63000000  52.50000000
C    15.26000023   1.38999999  51.45999908
C    16.59000015   1.77999997  51.45000076
C     6.65999985   0.59999996  52.22000122
H     6.42471123   0.25063211  51.21467590
H    11.14999962   1.82999992  50.02999878
H    12.56999969  -0.74000001  54.06999969
H    10.19999981  -0.99000001  54.77000427
H     7.95000029  -0.46000001  54.47999954
H     8.82000065   1.31999993  50.61999893
H    17.06999969   2.38999987  50.68999863
H     6.17000008   0.14999999  53.09000015
H     6.38999987   1.66999996  52.18999863
S    18.02999878   0.24000001  54.82999802
C    20.68000031   0.69999999  54.09999847
C    19.34999847   0.88000000  53.82999802
C    18.86999893   1.38999999  52.56999969
C    19.84000015   1.81999993  51.69000244
C    21.22999954   1.75999999  51.95999908
C    22.22999954   2.24000001  51.07999802
C    23.57000160   2.26999998  51.38000107
C    24.00000000   1.65000010  52.57999802
C    23.05999947   1.18000007  53.47000122
C    21.67000008   1.19000006  53.20999908
C    17.42000008   1.28999996  52.47000122
C    16.86000061   0.54000002  53.54000092
C    15.50000000   0.22000000  53.54999924
C    25.45999908   1.29999995  52.76000214
H    25.84248924   1.56915975  53.74456024
H    21.09000015   0.31000000  55.02999878
H    19.55999947   2.31999993  50.77000046
H    21.93000031   2.56999993  50.07999802
H    24.31999969   2.48000002  50.61999893
H    23.29999924   0.78000003  54.45000076
H    15.07999992  -0.32999998  54.38999939
H    26.09000015   1.69000006  51.95000076
H    25.59000015   0.20999999  52.72999573
