96

S    17.54999924   5.36000013  57.93000031
C    20.25000000   5.64000034  57.11000061
C    18.95000076   5.26000023  56.84999847
C    18.56999969   4.67000008  55.59000015
C    19.55999947   4.53999996  54.64000320
C    20.90999985   4.90000010  54.87999725
C    21.90999985   4.86999989  53.87000275
C    23.22999954   5.15999985  54.16999817
C    23.59999847   5.56999969  55.47000122
C    22.60999870   5.88000011  56.38000107
C    21.25999832   5.52999973  56.12999725
C    17.13000107   4.53999996  55.47000122
C    16.42000008   4.88000011  56.65000153
C    15.03999901   4.90000010  56.73999786
C    25.03999901   5.86000013  55.81999969
H    25.40319443   5.15497684  56.56774902
H    20.51000214   6.12999964  58.04999924
H    19.40999985   4.15000010  53.62999725
H    21.59000015   4.59000015  52.87000275
H    24.00000000   4.94999981  53.43000031
H    22.81999969   6.34000015  57.35000229
H    14.50000000   5.21000004  57.63999939
H    25.63999939   5.98999977  54.91000366
H    24.96000099   6.86999989  56.25000000
S    13.89999962   4.09999990  53.01000214
C    11.21000099   3.82999992  53.75000000
C    12.48000050   4.26000023  54.06000137
C    12.84000015   4.63999987  55.38999939
C    11.87000084   4.74000025  56.37000275
C    10.52999973   4.42000008  56.06999969
C     9.50000000   4.55000019  57.04000092
C     8.25000000   4.05999994  56.76000214
C     7.90999985   3.71000004  55.41999817
C     8.86999989   3.55999994  54.45000076
C    10.21999931   3.88999987  54.77000427
C    14.28999996   4.69000006  55.58000183
C    14.98999977   4.42000008  54.38000107
C    16.36999893   4.25000000  54.33000183
C     6.47000027   3.28999996  55.20000076
H     6.01398373   3.93839765  54.45185089
H    10.98999977   3.50000000  52.74000168
H    12.10000038   4.94999981  57.41000366
H     9.77999973   4.94000006  58.01000214
H     7.46999979   3.98999977  57.50999832
H     8.71999931   3.14000010  53.46000290
H    16.90000153   3.94000006  53.43000031
H     5.89999962   3.30000019  56.13999939
H     6.43000031   2.23000002  54.93000031
S    17.84000015   5.96000004  51.95999908
C    20.58000183   6.15000010  51.26999664
C    19.29000092   5.79999971  50.93999863
C    18.95000076   5.38999987  49.61000061
C    19.92000008   5.23999977  48.63999939
C    21.25999832   5.55000019  48.96999741
C    22.25000000   5.19999981  48.01000214
C    23.55999947   5.55999994  48.22999954
C    23.92000008   6.15999985  49.45999908
C    22.98000145   6.32000017  50.45000076
C    21.59000015   6.02999973  50.27999878
C    17.51000023   5.26000023  49.40999985
C    16.77999878   5.58000040  50.58000183
C    15.39999962   5.72000027  50.66999817
C    25.36000061   6.56000042  49.68999863
H    25.78022003   5.94747734  50.48770142
H    20.63999939   6.63000011  52.23999786
H    19.79999924   4.88999987  47.61000061
H    21.90000153   4.86000013  47.04000092
H    24.31999969   5.28999996  47.49000168
H    23.22999954   6.81999969  51.38000107
H    14.93999958   6.09000015  51.58000183
H    25.85000038   6.32999992  48.73000336
H    25.43999863   7.63999987  49.82999802
S    14.27999973   4.36999989  47.09999847
C    11.56000042   4.53999996  47.63999939
C    12.84999943   4.74000025  48.08000183
C    13.20000076   5.21000004  49.38000107
C    12.17000008   5.38999987  50.30000305
C    10.85000038   5.03999996  49.93000031
C     9.77000046   5.14999962  50.86000061
C     8.55000019   4.65999985  50.45000076
C     8.19999981   4.17000008  49.16999817
C     9.22000027   4.13000011  48.25000000
C    10.52000046   4.56999969  48.61000061
C    14.63000107   5.40000010  49.54999924
C    15.34000015   4.97000027  48.39000320
C    16.72000122   4.78999996  48.36000061
C     6.76000023   3.81000018  48.88999939
H     6.38210344   4.38041067  48.04151535
H    11.51000023   4.23999977  46.59999847
H    12.39999962   5.82999992  51.25999832
H     9.94000053   5.51000023  51.86999893
H     7.71000004   4.88000011  51.10000229
H     9.13999939   3.72000003  47.23999786
H    17.18000031   4.19999981  47.57999802
H     6.11000013   4.05999994  49.75000000
H     6.84000015   2.73999977  48.67000198
