96

S    17.52000046   5.09000015  58.02999878
C    20.22000122   5.31000042  57.29000092
C    18.95000076   4.85000038  57.01000214
C    18.59000015   4.33999968  55.72000122
C    19.59000015   4.23000002  54.78000259
C    20.93000031   4.57999992  55.08999634
C    22.01000023   4.44999981  54.15999985
C    23.29999924   4.79999971  54.48999786
C    23.61999893   5.42000008  55.72000122
C    22.59000015   5.61999989  56.62000275
C    21.28000069   5.13999987  56.37000275
C    17.14999962   4.32999992  55.50000000
C    16.44000053   4.75000000  56.65999985
C    15.07999992   5.00000000  56.70999908
C    25.05000114   5.79999971  56.02000427
H    25.44126129   5.11706829  56.77407455
H    20.43999863   5.84999990  58.20999908
H    19.34999847   3.93000007  53.76999664
H    21.84000015   4.03999996  53.16999817
H    23.94000053   4.92000008  53.61999893
H    22.73999977   6.03999996  57.62000275
H    14.65000057   5.35000038  57.64999771
H    25.65999985   5.88000011  55.12000275
H    25.00000000   6.83000040  56.42000198
S    13.78000069   3.86999989  53.25000000
C    11.05000019   3.98000002  53.90999603
C    12.35999966   4.13999987  54.27999878
C    12.77999973   4.56999969  55.58000183
C    11.73999977   4.78999996  56.45999908
C    10.36999893   4.61999989  56.14999771
C     9.30999947   4.88000011  57.06999969
C     8.01000023   4.59000015  56.75000000
C     7.63000011   4.13000011  55.45999908
C     8.61999989   3.95000005  54.52000046
C     9.98999977   4.15999985  54.84000397
C    14.22999954   4.69999981  55.63999939
C    14.96999931   4.26999998  54.50000000
C    16.34000015   4.13000011  54.36999893
C     6.17000008   3.86999989  55.19000244
H     5.80019760   4.28247213  54.25127411
H    10.81999969   3.65000010  52.90000153
H    11.90999985   5.33999968  57.37999725
H     9.56999969   5.25000000  58.06000137
H     7.20000029   4.84000015  57.42000198
H     8.38000011   3.58999991  53.52000427
H    16.80999947   3.72000003  53.47999954
H     5.56999969   4.32000017  55.98999786
H     6.01999998   2.79000020  55.34999847
S    17.61000061   5.75000000  52.02000046
C    20.36999893   5.73000002  51.38000107
C    19.05999947   5.51999998  51.02000427
C    18.67000008   5.00000000  49.73999786
C    19.67000008   4.81999969  48.80000305
C    21.02999878   5.07000017  49.12000275
C    22.03000069   5.00999975  48.11000061
C    23.34000015   5.32000017  48.37999725
C    23.67000198   5.77000046  49.68000031
C    22.76000023   5.84999990  50.70999908
C    21.40000153   5.55999994  50.41999817
C    17.23999977   4.80999994  49.54000092
C    16.54000092   5.27999973  50.68000031
C    15.17000008   5.51999998  50.68000031
C    25.06999969   6.26999950  49.95999908
H    25.62579346   5.58594751  50.60129929
H    20.65999985   5.97000027  52.39999771
H    19.40999985   4.59000015  47.77000046
H    21.70000076   4.84000015  47.08000183
H    24.11999893   5.28999996  47.63000107
H    23.01000214   6.05000019  51.75000000
H    14.67000008   5.75999975  51.62000275
H    25.66999817   6.44000006  49.06999969
H    24.93000031   7.27999973  50.37000275
S    14.04999924   4.30000019  47.08000183
C    11.36000061   4.11000013  47.78999710
C    12.63000011   4.53999996  48.11000061
C    12.98999977   5.05999994  49.38999939
C    11.98999977   5.15999985  50.34000015
C    10.64000034   4.85000038  50.00999832
C     9.52999973   5.03000021  50.87999725
C     8.23000050   4.82999992  50.47000122
C     7.90999985   4.23000002  49.22000122
C     8.94999981   4.09999990  48.33000183
C    10.29999924   4.32999992  48.70999908
C    14.42999935   5.23000002  49.52999878
C    15.14000034   4.82999992  48.36999893
C    16.52000046   4.61000013  48.36000061
C     6.47000027   3.93000007  48.86000061
H     6.14953518   4.42137957  47.94133377
H    11.18999958   3.60000014  46.84999847
H    12.18000031   5.46999979  51.36000061
H     9.71000004   5.47999954  51.84999847
H     7.53999996   5.44000053  51.03000259
H     8.85999966   3.75999975  47.30999756
H    16.98999977   4.36999989  47.42000198
H     5.79999971   4.13000011  49.69999695
H     6.32999992   2.86999989  48.61999893
