96

S    17.56000137   5.47999954  58.02999878
C    20.23999977   5.46999979  57.35000229
C    18.95000076   5.17000008  56.97999954
C    18.57999992   4.80999994  55.63999939
C    19.63000107   4.65999985  54.75000000
C    20.97999954   4.92000008  55.08999634
C    21.97999954   4.80999994  54.09000015
C    23.26000023   5.23999977  54.34000015
C    23.59999847   5.65999985  55.65000153
C    22.67000008   5.71000004  56.65999985
C    21.30000114   5.40000010  56.40999603
C    17.13000107   4.84000015  55.51000214
C    16.43000031   5.26000023  56.66999817
C    15.06000042   5.36000013  56.84999847
C    25.02000046   6.09000015  55.91999817
H    25.53722191   5.33187914  56.50807571
H    20.43999863   5.86999989  58.34000015
H    19.37999916   4.42999983  53.72000122
H    21.71999931   4.34999990  53.13999939
H    24.00000000   5.29999971  53.54000092
H    22.98999977   6.07999992  57.63000107
H    14.56999969   5.56999969  57.78999710
H    25.58000183   6.17999983  54.98000336
H    24.94999886   7.04999971  56.44000244
S    13.81999969   4.23999977  53.22000122
C    11.16000080   4.02999973  54.08000183
C    12.43000031   4.50000000  54.29999924
C    12.82999992   4.96000004  55.59000015
C    11.87999916   5.03999996  56.59999847
C    10.52999973   4.74000025  56.32999802
C     9.50000000   4.86999989  57.31999969
C     8.19999981   4.59000015  56.95999908
C     7.77999973   3.96000004  55.76000214
C     8.78999996   3.81000018  54.84000397
C    10.15999985   4.13999987  55.07999802
C    14.27000046   5.00000000  55.73999786
C    14.93000031   4.56999969  54.55999756
C    16.31000137   4.69000006  54.38999939
C     6.38999987   3.45999980  55.41999817
H     5.91328955   3.91536498  54.55195999
H    10.93000031   3.35999990  53.26000214
H    12.20999908   5.26000023  57.61000061
H     9.78999996   5.17000008  58.31999969
H     7.48000050   4.80999994  57.72999573
H     8.60000038   3.38999987  53.85000229
H    16.75000000   4.63999987  53.40000153
H     5.75000000   3.58999991  56.30000305
H     6.61999989   2.40999985  55.24000168
S    18.02000046   6.37000036  51.86000061
C    20.65000153   6.26999950  51.25999832
C    19.40000153   5.82999992  50.89000320
C    19.03000069   5.22000027  49.65000153
C    20.06000137   5.10999966  48.73000336
C    21.35999870   5.59000015  49.03999710
C    22.42000198   5.26999998  48.15000153
C    23.69999886   5.69000006  48.40999985
C    24.04999924   6.17000008  49.69999695
C    23.05999947   6.46000004  50.61000061
C    21.70000076   6.14000034  50.31999969
C    17.59000015   5.07000017  49.54999924
C    16.93000031   5.78000021  50.58000183
C    15.55999947   6.01000023  50.59999847
C    25.50000000   6.39999962  50.10000229
H    25.86404228   5.72902012  50.87805176
H    20.85000038   6.94000006  52.09999847
H    19.88999939   4.55000019  47.81000137
H    22.22999954   4.53000021  47.36999893
H    24.54999924   5.31000042  47.87000275
H    23.34000015   6.84000015  51.59000015
H    15.01999950   6.42000008  51.44000244
H    26.18999863   6.32999992  49.25000000
H    25.58000183   7.46000004  50.37000275
S    14.30999947   4.25000000  47.30999756
C    11.64999962   4.07999992  48.11999893
C    12.93000031   4.50000000  48.39000320
C    13.34000015   5.19000006  49.56999969
C    12.34000015   5.47999954  50.47000122
C    11.02000046   4.99000025  50.28999710
C     9.98000050   5.22000027  51.23000336
C     8.64000034   5.00999975  50.97999954
C     8.28999996   4.26000023  49.82999802
C     9.27999973   3.89999986  48.94000244
C    10.64000034   4.26999998  49.09999847
C    14.77000046   5.49000025  49.56999969
C    15.47999954   4.92999983  48.47000122
C    16.84000015   4.65000010  48.43999863
C     6.88000011   3.77999997  49.54999924
H     6.50160885   4.26548290  48.65042877
H    11.31999969   3.76999998  47.14000320
H    12.56000042   6.01999998  51.38999939
H    10.27999973   5.65999985  52.18000031
H     7.90000010   5.45000029  51.65000153
H     8.97000027   3.45999980  47.98999786
H    17.28999901   4.15999985  47.58999634
H     6.17999983   3.91000009  50.38000107
H     6.93000031   2.70000005  49.36999893
