96

S    17.20999908   5.51999998  57.81000137
C    19.88999939   5.42000008  57.09999847
C    18.59000015   5.13000011  56.76000214
C    18.20000076   4.55000019  55.51000214
C    19.18000031   4.41000032  54.54999924
C    20.53999901   4.67000008  54.86000061
C    21.56999969   4.48000002  53.89999771
C    22.89999962   4.71000004  54.16999817
C    23.22999954   5.19000006  55.47000122
C    22.27999878   5.50000000  56.40999603
C    20.90999985   5.25000000  56.12999725
C    16.75000000   4.48999977  55.35999680
C    16.11999893   4.99000025  56.52000046
C    14.73999977   5.14999962  56.62000275
C    24.64999962   5.53999996  55.84999847
H    24.98340797   5.00087166  56.73672104
H    20.03000069   5.75000000  58.11999893
H    18.95000076   4.21999979  53.50000000
H    21.30000114   4.19999981  52.88999939
H    23.68000031   4.48000002  53.44999695
H    22.57999802   5.98000002  57.34000397
H    14.25000000   5.40999985  57.56000137
H    25.26000023   5.26000023  54.98000336
H    24.70999908   6.61000013  56.04999924
S    13.47000027   3.77999997  53.09999847
C    10.78999996   3.77999997  53.88000107
C    12.10000038   4.07999992  54.19000244
C    12.53000069   4.55000019  55.47000122
C    11.54000092   4.86999989  56.37000275
C    10.18000031   4.57999992  56.11000061
C     9.18000031   4.67000008  57.11999893
C     7.83999968   4.51999998  56.86000061
C     7.46000004   3.96000004  55.61000061
C     8.42000008   3.63999987  54.66999817
C     9.77999973   4.00999975  54.85000229
C    13.96999931   4.76000023  55.52000046
C    14.61999989   4.23999977  54.36999893
C    15.98999977   4.05000019  54.26000214
C     6.03999996   3.60000014  55.27000046
H     5.57184982   4.25966644  54.53940201
H    10.59999943   3.42000008  52.87000275
H    11.85999966   5.23999977  57.34000397
H     9.53999996   5.07999992  58.06000137
H     7.09999990   4.69000006  57.63999939
H     8.27000046   3.17000008  53.69999695
H    16.39999962   3.74000025  53.29999924
H     5.36999989   3.68999982  56.12999725
H     6.12999964   2.57999992  54.86000061
S    14.22000027   1.66999996  50.11000061
C    11.56000042   1.39999998  50.89000320
C    12.89000034   1.21000004  51.18999863
C    13.31999969   0.54000002  52.37999725
C    12.38000011   0.02000000  53.25000000
C    11.00999928   0.31000000  53.04000092
C     9.96999931  -0.22000000  53.85000229
C     8.64000034  -0.08000001  53.53000259
C     8.27000046   0.57999998  52.32999802
C     9.22000027   1.08999991  51.46999741
C    10.59000015   0.94999999  51.81999969
C    14.75999928   0.69999999  52.51999664
C    15.39000034   1.28000009  51.38999939
C    16.72000122   1.67999995  51.43000031
C     6.83000040   0.97999996  52.14000320
H     6.28149748   0.31039941  51.47752380
H    11.23999977   1.89999998  49.98000336
H    12.58999920  -0.82000005  53.90999603
H    10.22999954  -0.71999997  54.78000259
H     7.86000013  -0.50000000  54.15999985
H     9.00000000   1.58000004  50.52000046
H    17.15999985   1.90999997  50.45999908
H     6.34000015   1.13000000  53.09999847
H     6.90000010   1.94000006  51.60999680
S    18.07999992   0.55000001  54.98000336
C    20.76999855   0.76999998  54.12000275
C    19.44000053   1.02999997  53.94000244
C    18.96999931   1.44999993  52.64999771
C    19.88000107   1.84000003  51.69000244
C    21.27000046   1.71000004  51.90999985
C    22.27999878   2.10999990  50.98999786
C    23.61999893   2.04999995  51.27999878
C    24.04000092   1.64000010  52.56999969
C    23.12999916   1.13999999  53.47000122
C    21.73999977   1.18000007  53.15999985
C    17.51000023   1.38999999  52.54000092
C    16.88999939   0.88000000  53.69999695
C    15.55999947   0.46999997  53.64999771
C    25.51000214   1.43000007  52.84999847
H    25.91617393   1.83617342  53.77635956
H    21.12999916   0.41999999  55.08999634
H    19.55000114   2.15000010  50.70000076
H    22.11000061   2.42000008  49.95999908
H    24.37000084   2.31999993  50.54000092
H    23.42000008   0.57999998  54.36000061
H    15.11000061  -0.06000000  54.47999954
H    26.11000061   1.76999998  51.98999786
H    25.52000046   0.32999998  52.84999847
