96

S    16.98999977   5.42999983  57.85999680
C    19.70000076   5.47999954  57.15999985
C    18.40999985   5.09999990  56.84999847
C    18.12999916   4.67000008  55.52000046
C    19.18000031   4.48999977  54.64000320
C    20.52000046   4.88000011  54.87999725
C    21.63000107   4.72000027  54.00000000
C    22.86000061   5.23999977  54.31999969
C    23.12000084   5.77000046  55.61000061
C    22.07999992   5.73000002  56.51000214
C    20.75000000   5.32999992  56.22000122
C    16.68000031   4.61999989  55.33000183
C    15.95999908   5.07999992  56.45999908
C    14.57999992   5.19000006  56.45000076
C    24.51000023   6.28999996  55.93000031
H    24.91507530   5.79253769  56.81121826
H    19.82999992   6.05999994  58.06999969
H    18.96999931   3.86999989  53.76999664
H    21.50000000   4.15999985  53.06999969
H    23.64000130   5.18000031  53.56999969
H    22.32000160   6.15000010  57.49000168
H    14.09999943   5.58000040  57.35000229
H    25.19000053   6.05999994  55.10000229
H    24.54000092   7.37999964  56.10000229
S    13.53000069   3.95000005  52.77999878
C    10.85999966   3.73000002  53.53000259
C    12.13999939   4.09000015  53.87000275
C    12.46999931   4.67000008  55.13999939
C    11.50000000   4.74000025  56.11999893
C    10.18000031   4.32000017  55.83000183
C     9.11999989   4.57999992  56.75000000
C     7.82999992   4.32000017  56.37000275
C     7.48000050   3.71000004  55.13000107
C     8.51000023   3.40999985  54.27000046
C     9.85999966   3.77999997  54.54000092
C    13.92000008   4.76999998  55.28999710
C    14.60999966   4.39000034  54.12000275
C    16.00000000   4.36999989  54.13000107
C     6.06999969   3.26999998  54.82999802
H     5.77011681   3.76980519  53.90893173
H    10.50000000   3.40000010  52.56999969
H    11.84000015   5.17000008  57.05999756
H     9.32999992   4.86000013  57.77999878
H     7.03000021   4.67000008  57.02000046
H     8.23999977   3.21000004  53.23999786
H    16.56999969   4.21000004  53.22000122
H     5.33999968   3.60000014  55.58000183
H     6.01000023   2.19000006  54.61999893
S    17.53000069   5.96000004  51.79000092
C    20.22000122   6.01000023  51.20999908
C    18.97999954   5.53999996  50.86000061
C    18.63000107   4.86999989  49.64000320
C    19.61000061   4.85000038  48.66000366
C    20.90999985   5.36000013  48.90999603
C    21.96000099   5.27999973  47.95000076
C    23.25000000   5.61999989  48.25000000
C    23.52999878   6.14000034  49.54000092
C    22.53999901   6.34000015  50.47999954
C    21.22999954   5.86999989  50.20999908
C    17.20000076   4.84000015  49.40999985
C    16.46000099   5.40999985  50.47999954
C    15.08999920   5.60999966  50.47999954
C    24.97999954   6.53999996  49.68999863
H    25.55352974   5.86026287  50.32017517
H    20.50000000   6.60000038  52.06999969
H    19.38999939   4.44999981  47.68000031
H    21.80999947   4.73000002  47.02000046
H    24.02000046   5.50000000  47.49000168
H    22.65000153   6.90999985  51.39999771
H    14.70999908   6.02999973  51.40999603
H    25.40999985   6.65000010  48.68999863
H    25.03999901   7.55999994  50.07999802
S    13.94999981   4.35999966  46.95000076
C    11.23000050   4.07999992  47.62000275
C    12.51000023   4.44000006  47.98999786
C    12.89999962   4.97000027  49.26000214
C    11.85999966   5.15999985  50.14999771
C    10.54999924   4.75000000  49.82999802
C     9.53999996   5.01999950  50.79999924
C     8.23000050   4.65999985  50.56000137
C     7.86999989   4.07000017  49.31999969
C     8.82000065   3.81000018  48.36000061
C    10.19000053   4.15000010  48.56999969
C    14.32999992   5.18000031  49.38000107
C    15.06999969   4.67000008  48.27999878
C    16.45000076   4.50000000  48.27999878
C     6.44000006   3.74000025  48.97999573
H     6.16292429   4.14495659  48.00668335
H    10.98000050   3.56999993  46.70000076
H    12.06999969   5.65999985  51.09000397
H     9.75000000   5.53999996  51.72999954
H     7.42000008   5.05999994  51.14999771
H     8.43999958   3.38999987  47.43000031
H    16.92000008   4.07999992  47.38999939
H     5.77000046   4.26000023  49.68000031
H     6.09000015   2.70000005  48.97999573
