96

S    17.39999962   5.61999989  57.72999573
C    20.03000069   6.05999994  56.97000122
C    18.78000069   5.60999966  56.62000275
C    18.43000031   5.03999996  55.34999847
C    19.44000053   4.76999998  54.43999863
C    20.76999855   5.09999990  54.79999924
C    21.87999916   4.98000002  53.92000198
C    23.13999939   5.40999985  54.25000000
C    23.43000031   5.95000029  55.52999878
C    22.39000130   6.12999964  56.42000198
C    21.05999947   5.78999996  56.03000259
C    16.98999977   4.90000010  55.20999908
C    16.29999924   5.29999971  56.38000107
C    14.92000008   5.42000008  56.49000168
C    24.84999847   6.34999990  55.86000061
H    25.27748680   5.65177011  56.57960510
H    20.23999977   6.44999981  57.95999908
H    19.32999992   4.44000006  53.40999985
H    21.68000031   4.56999969  52.93000031
H    23.90999985   5.27999973  53.48999786
H    22.46000099   6.63999987  57.36999893
H    14.44000053   5.69000006  57.43000031
H    25.38999939   6.28000021  54.91000366
H    24.87999916   7.36999989  56.25999832
S    13.76000023   3.73000002  53.08000183
C    11.11999989   3.75999975  53.81000137
C    12.36999989   4.28999996  54.02999878
C    12.75000000   4.92000008  55.26000214
C    11.72000027   5.19000006  56.12999725
C    10.36999893   4.84000015  55.86999893
C     9.39000034   4.92999983  56.90000153
C     8.13000011   4.42000008  56.70999908
C     7.82000017   3.74000025  55.50000000
C     8.73000050   3.61000013  54.47999954
C    10.05000019   4.09000015  54.68000031
C    14.19999981   5.05999994  55.34999847
C    14.88000011   4.46999979  54.25000000
C    16.26000023   4.48000002  54.09000015
C     6.43000031   3.23000002  55.19000244
H     5.85042286   3.95983791  54.62473679
H    10.85000038   3.14000010  52.95000076
H    11.98999977   5.56999969  57.11000061
H     9.64999962   5.55000019  57.75000000
H     7.40000010   4.75000000  57.43999863
H     8.50000000   3.07999992  53.55999756
H    16.77999878   4.13999987  53.20000076
H     5.86000013   3.12999988  56.11999893
H     6.34000015   2.24000001  54.72999954
S    17.78000069   6.12999964  51.86999893
C    20.50000000   6.15000010  51.22000122
C    19.22000122   5.75999975  50.90000153
C    18.89999962   5.15999985  49.62999725
C    19.89999962   5.07999992  48.68000031
C    21.24000168   5.42000008  48.99000168
C    22.29999924   5.23999977  48.06000137
C    23.59999847   5.42999983  48.43999863
C    23.88999939   6.14000034  49.62999725
C    22.89999962   6.26999950  50.58000183
C    21.54999924   5.95000029  50.28999710
C    17.46000099   5.07000017  49.43000031
C    16.75000000   5.47999954  50.58000183
C    15.36000061   5.49000025  50.56999969
C    25.29000092   6.57999992  49.98000336
H    25.84598541   5.75315189  50.42193604
H    20.68000031   6.53999996  52.22000122
H    19.70000076   4.67000008  47.69000244
H    21.98999786   4.81999969  47.09999847
H    24.44000053   5.12000036  47.81000137
H    23.16999817   6.90000010  51.43000031
H    14.85000038   5.84999990  51.45999908
H    25.81000137   6.91999960  49.08000183
H    25.06000137   7.40999985  50.65999985
S    14.11000061   4.28000021  47.08000183
C    11.43000031   4.19000006  47.83000183
C    12.71000004   4.59000015  48.11000061
C    13.17000008   5.13000011  49.36000061
C    12.25999928   5.33999968  50.38000107
C    10.93999958   4.86999989  50.15999603
C     9.90999985   5.10999966  51.11000061
C     8.60999966   4.69999981  50.90999985
C     8.30999947   3.96000004  49.73999786
C     9.18000031   3.86000013  48.68000031
C    10.52000046   4.28999996  48.90999603
C    14.61999989   5.15999985  49.43000031
C    15.34000015   4.75000000  48.27000046
C    16.72999954   4.81999969  48.27000046
C     6.86999989   3.51999998  49.56999969
H     6.52125025   3.93280554  48.62339401
H    11.21000099   3.75000000  46.86000061
H    12.67000008   5.60999966  51.35000229
H    10.18000031   5.78999996  51.90999985
H     7.78999996   4.88000011  51.60999680
H     8.82000065   3.40000010  47.76000214
H    17.19000053   4.67999983  47.29999924
H     6.30999994   3.81000018  50.47000122
H     6.80000019   2.42000008  49.58000183
