96

S    17.10000038   5.26999998  57.81000137
C    19.80999947   5.00999975  57.29000092
C    18.52000046   4.81999969  56.84999847
C    18.17000008   4.59999990  55.47000122
C    19.25000000   4.51000023  54.61000061
C    20.55000114   4.90000010  54.97000122
C    21.64999962   4.65000010  54.09999847
C    22.92000008   4.92999983  54.54000092
C    23.22000122   5.46999979  55.81999969
C    22.20000076   5.42999983  56.73999786
C    20.85000038   5.21000004  56.35000229
C    16.72999954   4.44000006  55.33000183
C    16.01000023   4.77999973  56.50000000
C    14.63000107   4.90000010  56.63999939
C    24.61000061   6.01000023  56.10000229
H    25.12860489   5.39904022  56.83883667
H    19.98999977   5.09000015  58.36000061
H    19.11000061   3.98999977  53.66000366
H    21.42000008   4.17000008  53.15000153
H    23.71999931   4.78999996  53.81999969
H    22.42000198   5.59999990  57.78999710
H    14.15999985   5.21000004  57.56000137
H    25.22999954   6.03999996  55.20000076
H    24.51999855   7.04999971  56.42000198
S    13.45000076   3.63000011  53.09000015
C    10.80000019   3.28999996  53.89999771
C    12.06999969   3.71000004  54.20000076
C    12.38999939   4.28000021  55.47999954
C    11.42000008   4.48000002  56.44000244
C    10.08999920   4.09999990  56.13999939
C     9.07999992   4.23999977  57.12999725
C     7.77999973   3.91000009  56.79999924
C     7.44999981   3.42000008  55.51000214
C     8.43999958   3.12999988  54.61000061
C     9.80000019   3.45999980  54.88999939
C    13.82999992   4.50000000  55.56000137
C    14.53999996   4.13999987  54.38999939
C    15.92000008   4.05000019  54.26000214
C     6.01999998   3.03999996  55.18000031
H     5.52258062   3.73638725  54.50493240
H    10.59999943   2.79999995  52.95000076
H    11.64999962   4.90000010  57.42000198
H     9.30000019   4.69999981  58.09000015
H     6.96000004   4.15000010  57.47000122
H     8.18000031   2.73999977  53.61999893
H    16.44000053   3.65000010  53.39000320
H     5.47999954   2.96000004  56.12999725
H     6.05000019   1.99000001  54.87999725
S    13.64999962   1.74000001  49.95999908
C    10.98999977   1.13000000  50.58000183
C    12.31999969   1.05999994  50.91999817
C    12.76000023   0.46999997  52.15000153
C    11.82999992   0.09999999  53.09999847
C    10.44999981   0.11000000  52.77000046
C     9.43000031  -0.41999999  53.60000229
C     8.09000015  -0.32000002  53.29000092
C     7.67000008   0.45000002  52.18000031
C     8.63000011   0.87000000  51.30000305
C    10.01999950   0.64000005  51.50000000
C    14.21000004   0.54000002  52.25000000
C    14.82999992   1.25999999  51.19999695
C    16.18000031   1.59999990  51.26999664
C     6.17000008   0.59999996  52.04000092
H     5.88567019   0.13796359  51.09460068
H    10.71000004   1.54999995  49.61999893
H    12.13999939  -0.48000002  53.96999741
H     9.63999939  -0.96000004  54.51000214
H     7.42999983  -0.90000004  53.94000244
H     8.36999989   1.50999999  50.45999908
H    16.63999939   2.15000010  50.45000076
H     5.82000017   0.08000001  52.93000031
H     5.89999962   1.65000010  52.18999863
S    17.48999977   0.01000000  54.65999985
C    20.13999939   0.71000004  54.10999680
C    18.81000137   0.75999999  53.75000000
C    18.42000008   1.28999996  52.48000336
C    19.37000084   1.77999997  51.59999847
C    20.73999786   1.72000003  51.95999908
C    21.76000214   2.22000003  51.10000229
C    23.08000183   2.33999991  51.45999908
C    23.42000008   1.58999991  52.62000275
C    22.53000069   1.00999999  53.50000000
C    21.14999962   1.13999999  53.20999908
C    16.98999977   1.11000001  52.29999924
C    16.36999893   0.37000000  53.33000183
C    14.98999977   0.16000001  53.34000015
C    24.89000130   1.30999994  52.80000305
H    25.30204391   1.60127211  53.76617050
H    20.51000214   0.22000000  55.00999832
H    19.03000069   2.19000006  50.65000153
H    21.45999908   2.61000013  50.13000107
H    23.74000168   2.64999986  50.65999985
H    22.82999992   0.29999998  54.27000046
H    14.55999947  -0.37000000  54.18000031
H    25.50000000   1.82999992  52.04999924
H    25.03999901   0.22000000  52.74000168
