96

S    17.21999931   5.45000029  58.01000214
C    19.93999863   5.51000023  57.31999969
C    18.65999985   5.10999966  57.02000046
C    18.30999947   4.67999983  55.70000076
C    19.31999969   4.57999992  54.77000427
C    20.68000031   4.79999971  55.08999634
C    21.76000214   4.85000038  54.15999985
C    22.95999908   5.46000004  54.45000076
C    23.29000092   5.88999987  55.76000214
C    22.29999924   5.79999971  56.70999908
C    21.00000000   5.31000042  56.39999771
C    16.87999916   4.76999998  55.45000076
C    16.15999985   5.12000036  56.62000275
C    14.78000069   5.26000023  56.68000031
C    24.57999992   6.50000000  56.25999832
H    25.18343353   5.74038506  56.75694275
H    20.22000122   6.01999998  58.23999786
H    19.06999969   4.32999992  53.74000168
H    21.61000061   4.55999994  53.11999893
H    23.71000099   5.42000008  53.67000198
H    22.46999931   6.25000000  57.68000031
H    14.32000065   5.47999954  57.63999939
H    25.15000153   6.89000034  55.40000153
H    24.36000061   7.30999994  56.97000122
S    13.73000050   4.13000011  53.00000000
C    11.03000069   4.21000004  53.67000198
C    12.32999992   4.51999998  54.01000214
C    12.61000061   4.99000025  55.33000183
C    11.59000015   5.13000011  56.25999832
C    10.25000000   4.90000010  55.86999893
C     9.15999985   4.99000025  56.77999878
C     7.90000010   4.51999998  56.47999573
C     7.62000036   3.96000004  55.20999908
C     8.61999989   3.96000004  54.26000214
C     9.94000053   4.40000010  54.55999756
C    14.04999924   5.05000019  55.50000000
C    14.75999928   4.71000004  54.31999969
C    16.13999939   4.55000019  54.27999878
C     6.23000050   3.52999973  54.81999969
H     5.70326042   4.25604677  54.20072556
H    10.93000031   3.75000000  52.69000244
H    11.77000046   5.42000008  57.29000092
H     9.31999969   5.23999977  57.83000183
H     7.04999971   4.53000021  57.15999985
H     8.30999947   3.75999975  53.23999786
H    16.60000038   4.19999981  53.36000061
H     5.66999960   3.49000001  55.77000046
H     6.32000017   2.56000018  54.29999924
S    17.59000015   6.21000004  51.70000076
C    20.29000092   5.96000004  51.04999924
C    18.98999977   5.59999990  50.77000046
C    18.60000038   5.01999950  49.52999878
C    19.63000107   4.71000004  48.64999771
C    20.98999977   4.96000004  48.95999908
C    22.01000023   4.92000008  47.97999954
C    23.28000069   5.32000017  48.30999756
C    23.64000130   5.91000032  49.55999756
C    22.67000008   6.06999969  50.52000046
C    21.35999870   5.64000034  50.17000198
C    17.15999985   4.97000027  49.36999893
C    16.47999954   5.59999990  50.45000076
C    15.10000038   5.72000027  50.43000031
C    25.07999802   6.21999979  49.88999939
H    25.55625153   5.50917482  50.56528473
H    20.46999931   6.65999985  51.86000061
H    19.47999954   4.35999966  47.63000107
H    21.73000145   4.71000004  46.95000076
H    24.11999893   5.17000008  47.63999939
H    22.85000038   6.70000029  51.38999939
H    14.51000023   6.09000015  51.26999664
H    25.73999786   6.30000019  49.02000046
H    25.06999969   7.14999962  50.45999908
S    13.89999962   4.30999994  46.91999817
C    11.17000008   4.30000019  47.64999771
C    12.48999977   4.55999994  47.95999908
C    12.90999985   5.01999950  49.25000000
C    11.87999916   5.40000010  50.07999802
C    10.51000023   5.07999992  49.87999725
C     9.50000000   5.31000042  50.84999847
C     8.17000008   5.05999994  50.61000061
C     7.86999989   4.39000034  49.38999939
C     8.80999947   4.01999998  48.46000290
C    10.15999985   4.46000004  48.62999725
C    14.35999966   5.14999962  49.38999939
C    15.03000069   4.65999985  48.23999786
C    16.42000008   4.59000015  48.25000000
C     6.38999987   4.18000031  49.15000153
H     6.04083347   4.65030575  48.23076630
H    11.05999947   3.76999998  46.70999908
H    12.20999908   5.75000000  51.05999756
H     9.84000015   5.91000032  51.70000076
H     7.40999985   5.36999989  51.31999969
H     8.47999954   3.60000014  47.51999664
H    16.79000092   4.18000031  47.30999756
H     5.78000021   4.44000006  50.01999664
H     6.30000019   3.08999991  49.06000137
