96

S    17.00000000   5.44000053  57.94000244
C    19.73999977   5.51999998  57.23999786
C    18.45000076   5.13000011  56.97000122
C    18.13999939   4.55000019  55.70000076
C    19.11000061   4.34999990  54.73999786
C    20.45999908   4.63999987  55.06999969
C    21.52000046   4.39000034  54.15000153
C    22.85000038   4.59000015  54.40999985
C    23.18000031   5.18000031  55.65999985
C    22.18000031   5.44000053  56.56000137
C    20.79999924   5.14999962  56.37000275
C    16.69999886   4.42000008  55.47999954
C    15.98000050   4.96000004  56.56999969
C    14.59000015   5.07999992  56.55000305
C    24.61000061   5.65999985  55.77999878
H    25.09259415   5.15611649  56.61743927
H    19.96000099   6.11999989  58.13000107
H    18.86999893   3.93000007  53.75999832
H    21.17000198   4.21000004  53.13999939
H    23.59000015   4.26000023  53.68000031
H    22.57999802   6.00000000  57.41000366
H    14.02999973   5.46000004  57.38999939
H    25.15000153   5.51999998  54.84000397
H    24.63000107   6.74000025  55.94999695
S    13.45999908   3.56999993  53.06000137
C    10.70000076   3.73000002  53.63999939
C    12.00000000   4.07000017  53.94000244
C    12.44999981   4.65000010  55.17000198
C    11.46000004   4.94000006  56.07999802
C    10.11000061   4.55999994  55.86000061
C     9.06999969   4.59999990  56.83000183
C     7.76000023   4.23999977  56.58000183
C     7.39000034   3.76999998  55.30000305
C     8.36000061   3.58000016  54.34000015
C     9.70000076   3.93000007  54.64000320
C    13.89000034   4.65999985  55.40999985
C    14.57999992   4.03999996  54.34000015
C    15.97000027   3.91999984  54.40000153
C     5.98000002   3.60000014  54.78000259
H     5.70962715   4.16920567  53.89061737
H    10.44000053   3.28999996  52.69000244
H    11.72999954   5.14999962  57.11000061
H     9.35000038   4.90000010  57.84000015
H     6.98999977   4.55000019  57.28000259
H     8.15999985   3.25999999  53.31999969
H    16.43000031   3.47000003  53.52000427
H     5.33999968   4.00000000  55.58000183
H     5.75999975   2.52999997  54.65999985
S    14.55999947   1.86000001  50.20000076
C    11.94000053   1.01999998  50.68999863
C    13.27000046   0.97999996  51.04999924
C    13.67000008   0.44000000  52.30999756
C    12.71000004  -0.08000001  53.15999985
C    11.33999920   0.04000000  52.83000183
C    10.36000061  -0.41999999  53.75999832
C     9.02999973  -0.25999999  53.47000122
C     8.59000015   0.32000002  52.25000000
C     9.52000046   0.69000000  51.31000137
C    10.90999985   0.59000003  51.58000183
C    15.08999920   0.69000000  52.50000000
C    15.69000053   1.51999998  51.52000046
C    17.05999947   1.79000008  51.52999878
C     7.09999990   0.56999999  52.11999893
H     6.67382097  -0.01244456  51.30315781
H    11.69000053   1.41000009  49.71000290
H    12.96000004  -0.54000002  54.12000275
H    10.65999985  -0.85000002  54.71000290
H     8.30999947  -0.69000000  54.15999985
H     9.17000008   1.19000006  50.40000153
H    17.57999992   2.15000010  50.65000153
H     6.52999973   0.46999997  53.04999924
H     7.00000000   1.63000000  51.84999847
S    18.37000084  -0.02000000  54.79000092
C    21.09999847   0.50000000  54.18000031
C    19.75000000   0.69999999  53.95000076
C    19.30999947   1.26999998  52.70999908
C    20.22000122   1.75999999  51.79999924
C    21.61000061   1.64000010  52.06999969
C    22.62000084   2.09000015  51.17000198
C    23.95999908   1.89999998  51.42000198
C    24.40999985   1.54999995  52.71999741
C    23.45000076   1.18000007  53.62999725
C    22.06000137   1.10000002  53.33000183
C    17.86000061   1.34000003  52.58999634
C    17.19000053   0.63000000  53.61999893
C    15.82999992   0.32999998  53.62999725
C    25.88999939   1.39999998  52.97000122
H    26.13253212   1.52126670  54.02573395
H    21.45999908  -0.14999999  54.95999908
H    19.93000031   2.23000002  50.86000061
H    22.29000092   2.46000004  50.20000076
H    24.72999954   2.06999993  50.68000031
H    23.75999832   0.69000000  54.54999924
H    15.44000053  -0.38000000  54.34999847
H    26.42000008   2.07999992  52.29000092
H    26.27000046   0.41999999  52.65999603
