96

S    17.25000000   5.51000023  58.01000214
C    20.00999832   5.58000040  57.30999756
C    18.70000076   5.31000042  57.00000000
C    18.32999992   4.88999987  55.68000031
C    19.32999992   4.69999981  54.75999832
C    20.69000053   4.92000008  55.07999802
C    21.77999878   4.67999983  54.20000076
C    23.09000015   4.92999983  54.52999878
C    23.40999985   5.59999990  55.73999786
C    22.40999985   5.77000046  56.66999817
C    21.07999992   5.36999989  56.39999771
C    16.88999939   4.69000006  55.56999969
C    16.13999939   5.14999962  56.68000031
C    14.77000046   5.38000011  56.63000107
C    24.84000015   6.02999973  55.97999954
H    25.31543732   5.42683649  56.75346756
H    20.28000069   5.92999983  58.29999924
H    19.13999939   4.50000000  53.70999908
H    21.60000038   4.30999994  53.18999863
H    24.00000000   4.63000011  54.01000214
H    22.52000046   6.26999950  57.63000107
H    14.22999954   5.73999977  57.50000000
H    25.36000061   5.95000029  55.00999832
H    25.00999832   7.07000017  56.27999878
S    13.78999901   3.84999990  53.08000183
C    11.03000069   4.11999989  53.55999756
C    12.32999992   4.33999968  53.95999908
C    12.61999989   4.88000011  55.25000000
C    11.57999992   5.19999981  56.10000229
C    10.24000072   4.94999981  55.72000122
C     9.25000000   4.88000011  56.73999786
C     7.97999954   4.46999979  56.42000198
C     7.67000008   4.00000000  55.11000061
C     8.60000038   4.07000017  54.09999847
C     9.94999981   4.41000032  54.41999817
C    14.06000042   4.96000004  55.50000000
C    14.80000019   4.39000034  54.43999863
C    16.18000031   4.25000000  54.43999863
C     6.32000017   3.40000010  54.82999802
H     5.90752745   4.05426645  54.06194687
H    10.84000015   3.49000001  52.70000076
H    11.79999924   5.45000029  57.14000320
H     9.50000000   5.09000015  57.77999878
H     7.17000008   4.40000010  57.15000153
H     8.36999989   3.56999993  53.15999985
H    16.68000031   4.09000015  53.48999786
H     5.71000004   3.25999999  55.72999954
H     6.38999987   2.37000012  54.43999863
S    13.86999989   2.00999999  49.97000122
C    11.18999958   1.51999998  50.72000122
C    12.53999901   1.33000004  50.91999817
C    13.00000000   0.63000000  52.06999969
C    12.07999992   0.16000001  53.00000000
C    10.69000053   0.34999999  52.84999847
C     9.80000019  -0.16000001  53.82999802
C     8.45000076  -0.06000000  53.56999969
C     7.95000029   0.57999998  52.39999771
C     8.82999992   1.05999994  51.46999741
C    10.24000072   0.97999996  51.63000107
C    14.44000053   0.79999995  52.22999954
C    15.06999969   1.50000000  51.17000198
C    16.44000053   1.76999998  51.16000366
C     6.46000004   0.75999999  52.19999695
H     5.99780560   0.45424080  51.26138687
H    10.86999989   2.03999996  49.81999969
H    12.43999958  -0.48000002  53.81000137
H    10.21999931  -0.59999996  54.72999954
H     7.81000042  -0.55000001  54.29000092
H     8.39999962   1.64000010  50.65999985
H    16.92000008   2.20000005  50.28999710
H     5.86999989   0.25999999  52.98999786
H     6.34999990   1.82999992  52.37999725
S    17.65999985   0.74000001  54.75999832
C    20.36999893   0.99000001  54.13000107
C    19.05999947   1.10000002  53.72000122
C    18.64999962   1.51999998  52.42000198
C    19.67000008   2.05999994  51.63999939
C    21.02999878   1.97000003  52.00000000
C    22.04999924   2.40999985  51.11000061
C    23.36000061   2.28999996  51.50000000
C    23.77000046   1.64000010  52.70000076
C    22.79000092   1.21000004  53.55999756
C    21.40999985   1.43000007  53.27999878
C    17.20999908   1.42000008  52.28000259
C    16.53000069   0.88000000  53.40000153
C    15.19999981   0.48999998  53.36000061
C    25.17000008   1.15999997  53.02999878
H    25.60419464   1.58707690  53.93397903
H    20.69999886   0.46999997  55.02999878
H    19.38999939   2.63999987  50.77000046
H    21.78999901   2.96999979  50.21999741
H    24.11000061   2.61999989  50.79000092
H    23.19000053   0.82999998  54.50000000
H    14.80000019  -0.27000001  54.02999878
H    25.84000015   1.54999995  52.25000000
H    25.13000107   0.07000000  53.02000046
