96

S    17.20000076   5.32000017  58.18000031
C    19.90999985   5.32000017  57.52999878
C    18.60999870   5.14999962  57.11999893
C    18.23999977   4.71000004  55.80999756
C    19.27000046   4.48999977  54.91000366
C    20.62000084   4.63999987  55.31000137
C    21.64999962   4.46000004  54.34000015
C    22.95000076   4.72000027  54.69999695
C    23.31000137   5.28999996  55.94999695
C    22.32000160   5.52999973  56.88000107
C    20.97999954   5.15999985  56.60999680
C    16.79999924   4.61999989  55.61999893
C    16.11999893   4.98000002  56.81000137
C    14.73000050   5.09999990  56.84000015
C    24.77000046   5.51000023  56.26999664
H    25.09017181   4.93369293  57.13801956
H    20.22000122   5.59999990  58.53000259
H    19.05999947   4.32000017  53.86000061
H    21.30000114   4.13000011  53.36999893
H    23.62999916   4.15999985  54.06999969
H    22.49000168   5.88000011  57.90000153
H    14.27000046   5.32999992  57.80000305
H    25.43000031   5.32000017  55.40999985
H    24.90999985   6.57000017  56.52999878
S    13.60000038   4.00000000  53.20999908
C    10.93999958   3.54999995  53.90999603
C    12.17000008   4.07000017  54.25000000
C    12.53999901   4.55999994  55.54999924
C    11.46000004   4.90000010  56.33999634
C    10.14999962   4.42000008  56.12999725
C     9.02999973   4.44000006  57.01000214
C     7.77999973   3.97000027  56.66999817
C     7.55000019   3.44000006  55.38000107
C     8.61999989   3.28999996  54.52999878
C     9.92999935   3.73000002  54.88999939
C    13.96999931   4.76999998  55.70999908
C    14.68999958   4.51999998  54.51000214
C    16.06999969   4.40000010  54.43999863
C     6.10000038   3.15000010  55.04000092
H     5.62294436   3.78370070  54.29237747
H    10.77000046   3.23000002  52.88999939
H    11.65999985   5.35000038  57.30999756
H     9.10000038   4.86999989  58.01000214
H     6.98000002   4.09000015  57.38999939
H     8.48999977   2.80999994  53.56999969
H    16.56999969   3.98000002  53.56999969
H     5.51000023   3.42999983  55.91999817
H     5.92000008   2.09000015  54.81999969
S    14.01000023   1.80000007  50.47000122
C    11.38000011   1.08000004  51.11000061
C    12.69999981   1.18000007  51.49000168
C    13.17999935   0.74000001  52.77000046
C    12.32999992  -0.01000000  53.56999969
C    10.97000027  -0.11000000  53.22000122
C    10.01999950  -0.61000001  54.16999817
C     8.69000053  -0.59999996  53.82999802
C     8.25000000   0.06000000  52.65999603
C     9.10000038   0.38000000  51.63000107
C    10.48999977   0.38000000  51.95000076
C    14.60999966   0.99000001  52.90999985
C    15.21000004   1.56000006  51.75000000
C    16.57999992   1.75000000  51.72000122
C     6.76999998   0.34000003  52.50000000
H     6.37931156   0.02034590  51.53393555
H    11.05999947   1.54999995  50.18000031
H    12.69000053  -0.37000000  54.52999878
H    10.36999893  -0.81000000  55.18000031
H     8.05000019  -0.68000007  54.69999695
H     8.84000015   0.93000001  50.72999954
H    17.09000015   1.94000006  50.77999878
H     6.24000025  -0.12000000  53.34999847
H     6.54999971   1.41000009  52.60000229
S    17.98999977   0.50999999  55.15999603
C    20.62999916   0.74000001  54.29999924
C    19.30999947   1.03999996  54.09000015
C    18.81000137   1.70000005  52.91999817
C    19.68000031   2.10999990  51.93000031
C    21.07000160   2.00000000  52.18000031
C    22.11000061   2.40999985  51.31000137
C    23.43000031   2.13000011  51.58000183
C    23.88999939   1.58999991  52.81000137
C    22.90999985   1.23000002  53.69999695
C    21.53000069   1.34000003  53.37999725
C    17.35999870   1.64000010  52.88000107
C    16.76000023   0.97999996  53.97999573
C    15.43000031   0.57999998  53.96999741
C    25.35000038   1.26999998  53.01000214
H    25.76296616   1.59752417  53.96409225
H    20.89999962   0.25999999  55.22999573
H    19.31999969   2.42000008  50.94999695
H    21.83000183   2.94999981  50.40999985
H    24.11999893   2.52999997  50.84000015
H    23.15000153   0.50000000  54.47000122
H    15.06999969  -0.08000001  54.75000000
H    25.90999985   1.77999997  52.21000290
H    25.36000061   0.17999999  52.84999847
