96

S    17.00000000   5.19000006  57.97000122
C    19.69000053   5.15999985  57.29000092
C    18.38999939   4.90000010  56.90999985
C    18.09000015   4.40000010  55.59999847
C    19.14999962   4.15999985  54.73999786
C    20.45000076   4.59000015  55.07999802
C    21.54000092   4.30999994  54.20999908
C    22.85000038   4.50000000  54.58000183
C    23.15000153   5.12000036  55.81999969
C    22.13999939   5.36000013  56.72000122
C    20.79000092   5.01999950  56.40999603
C    16.64999962   4.38000011  55.41999817
C    15.97000027   4.85000038  56.56000137
C    14.59000015   5.00000000  56.66999817
C    24.57999992   5.47999954  56.12999725
H    25.02127647   4.76114845  56.82038116
H    19.86999893   5.55999994  58.29000092
H    19.00000000   3.75000000  53.75000000
H    21.34000015   3.76999998  53.27999878
H    23.72999954   4.25000000  53.99000168
H    22.36999893   5.93999958  57.61000061
H    14.22999954   5.22000027  57.67000198
H    25.20000076   5.50000000  55.21999741
H    24.67000008   6.50000000  56.53999710
S    13.35999966   3.74000025  53.11999893
C    10.76000023   3.19000006  53.88999939
C    12.01000023   3.61999989  54.27000046
C    12.43000031   4.15000010  55.54000092
C    11.35000038   4.30000019  56.38999939
C    10.00000000   4.11000013  56.03000259
C     8.92000008   4.32999992  56.93000031
C     7.63999987   3.97000027  56.58000183
C     7.32999992   3.49000001  55.27999878
C     8.34999943   3.25999999  54.38000107
C     9.68999958   3.61999989  54.71000290
C    13.85000038   4.46999979  55.61000061
C    14.51000023   4.23999977  54.38000107
C    15.88000107   4.07999992  54.27999878
C     5.97000027   2.93000007  54.93000031
H     5.68351650   3.22364545  53.92015076
H    10.47000027   2.68000007  52.97000122
H    11.56999969   4.63000011  57.39999771
H     9.17000008   4.61000013  57.95000076
H     7.00999975   3.81000018  57.45999908
H     8.18000031   2.68000007  53.47999954
H    16.34000015   3.76999998  53.34999847
H     5.21000004   3.25000000  55.65000153
H     5.97000027   1.82999992  55.00000000
S    17.50000000   5.65000010  51.97000122
C    20.25000000   5.59000015  51.36000061
C    18.94000053   5.36999989  50.97999954
C    18.60999870   5.09000015  49.61999893
C    19.65999985   4.92000008  48.74000168
C    21.02000046   5.13000011  49.08000183
C    22.06999969   5.13000011  48.11999893
C    23.36999893   5.38999987  48.47000122
C    23.67000198   5.60999966  49.84000397
C    22.69000053   5.61999989  50.79999924
C    21.31999969   5.51999998  50.43000031
C    17.17000008   4.96000004  49.40999985
C    16.45000076   5.23000002  50.59999847
C    15.06000042   5.21000004  50.63999939
C    25.06000137   6.02999973  50.27000046
H    25.39558411   5.38739252  51.08396530
H    20.35000038   5.82999992  52.41000366
H    19.31999969   4.77999973  47.70999908
H    21.83000183   4.88000011  47.09000015
H    24.17000008   5.53999996  47.75000000
H    22.95999908   5.88000011  51.81999969
H    14.55000019   5.35000038  51.59000015
H    25.66999817   5.80999947  49.38000107
H    25.03000069   7.07000017  50.61999893
S    14.01000023   4.19999981  46.90999985
C    11.26000023   4.09999990  47.75000000
C    12.57999992   4.44000006  47.91999817
C    13.00000000   4.84000015  49.22999954
C    12.10000038   4.97000027  50.27000046
C    10.73999977   4.65000010  50.10000229
C     9.80000019   4.74000025  51.16000366
C     8.47000027   4.50000000  50.90000153
C     7.95000029   4.19000006  49.61000061
C     8.90999985   4.01999998  48.63999939
C    10.31000042   4.21000004  48.80000305
C    14.44000053   4.97000027  49.40000153
C    15.13000011   4.63000011  48.20999908
C    16.52000046   4.59000015  48.22999954
C     6.48000002   3.98999977  49.31000137
H     6.21008682   4.25281000  48.28717422
H    10.90999985   3.88999987  46.73999786
H    12.43000031   5.19000006  51.29000092
H    10.18000031   5.13000011  52.11000061
H     7.77999973   4.81999969  51.66999817
H     8.51000023   3.55999994  47.74000168
H    17.05999947   4.28000021  47.32999802
H     5.84000015   4.44000006  50.06999969
H     6.38999987   2.89999986  49.41999817
