96

S    16.92000008   5.15999985  57.95000076
C    19.68000031   5.12000036  57.35000229
C    18.37000084   4.97000027  56.95000076
C    17.95999908   4.69000006  55.61000061
C    19.00000000   4.38000011  54.73999786
C    20.36000061   4.53000021  55.08999634
C    21.37000084   4.38000011  54.09999847
C    22.65999985   4.69000006  54.43999863
C    23.05999947   5.09000015  55.73999786
C    22.07999992   5.18000031  56.70999908
C    20.72999954   4.80999994  56.45000076
C    16.53000069   4.59000015  55.34999847
C    15.85000038   4.92000008  56.55000305
C    14.46000004   4.88000011  56.63999939
C    24.44999886   5.65000010  55.93999863
H    24.97895432   5.24971056  56.80491257
H    19.85000038   5.47999954  58.36000061
H    18.75000000   4.15000010  53.70999908
H    21.02000046   4.30999994  53.06999969
H    23.36000061   4.72000027  53.60000229
H    22.19000053   5.73999977  57.63999939
H    13.82999992   5.07999992  57.50000000
H    24.96000099   5.50000000  54.98000336
H    24.27999878   6.70000029  56.18000031
S    13.36999989   3.93000007  52.91999817
C    10.67000008   3.79999995  53.56999969
C    11.95000076   4.05999994  53.97999573
C    12.34000015   4.36999989  55.33000183
C    11.30000019   4.55000019  56.22000122
C     9.94999981   4.36999989  55.84999847
C     8.82999992   4.59000015  56.70999908
C     7.51999950   4.34999990  56.37000275
C     7.26000023   3.75000000  55.11000061
C     8.27999973   3.54999995  54.20999908
C     9.61999989   3.89999986  54.52999878
C    13.78000069   4.44999981  55.48999786
C    14.47999954   4.15000010  54.29000092
C    15.85999966   4.21000004  54.18000031
C     5.84000015   3.33999991  54.77000427
H     5.43280697   4.02579880  54.02705383
H    10.40999985   3.45000005  52.57999802
H    11.49000072   4.88000011  57.23999786
H     9.06999969   4.88999987  57.72999573
H     6.71000004   4.46000004  57.06999969
H     8.05999947   3.17999983  53.20999908
H    16.31000137   3.91000009  53.23999786
H     5.23000002   3.45999980  55.66999817
H     5.84000015   2.27999997  54.45999908
S    13.96000004   2.11999989  50.08999634
C    11.36999989   1.31999993  50.43000031
C    12.69000053   1.08999991  50.76000214
C    13.05999947   0.50000000  52.01000214
C    12.06999969   0.09999999  52.88999939
C    10.71000004   0.22000000  52.51999664
C     9.67000008  -0.16000001  53.40999985
C     8.34999943  -0.00000000  53.04000092
C     8.00000000   0.69999999  51.84999847
C     8.97999954   1.13000000  50.98999786
C    10.34000015   0.90000004  51.31000137
C    14.47000027   0.71000004  52.30999756
C    15.06999969   1.58999991  51.38000107
C    16.38000107   2.02999997  51.50000000
C     6.56000042   1.11000001  51.65000153
H     6.13292313   0.67580509  50.74602127
H    11.10000038   1.94000006  49.58000183
H    12.46000099  -0.28999999  53.82999802
H     9.89999962  -0.57999998  54.38000107
H     7.60999966  -0.20999999  53.80000305
H     8.69999981   1.58000004  50.04000092
H    16.73999977   2.76999998  50.79000092
H     5.95000029   0.88999999  52.54000092
H     6.63000011   2.20000005  51.59999847
S    17.56999969   0.12000000  54.80999756
C    20.29999924   0.73000002  54.26000214
C    18.96000099   0.86000001  53.97999573
C    18.53999901   1.61000001  52.84000015
C    19.48999977   2.13000011  51.97000122
C    20.88000107   1.98000002  52.19999695
C    21.87999916   2.38999987  51.26999664
C    23.21000099   2.21000004  51.59000015
C    23.64000130   1.53999996  52.77000046
C    22.65999985   1.14999998  53.66000366
C    21.27000046   1.35000002  53.43000031
C    17.11000061   1.54999995  52.58999634
C    16.46000099   0.82000005  53.61999893
C    15.13000011   0.41000003  53.50999832
C    25.12000084   1.29999995  52.88999939
H    25.54022026   1.57064939  53.85863876
H    20.59999847  -0.03000000  54.98000336
H    19.04999924   2.56999993  51.07999802
H    21.68000031   3.00000000  50.40000153
H    23.97000122   2.61000013  50.93000031
H    22.93000031   0.59000003  54.54999924
H    14.60000038  -0.08000001  54.31999969
H    25.61000061   1.76999998  52.02000046
H    25.13999939   0.23000000  52.64999771
