96

S    17.64000130   5.44000053  57.88999939
C    20.25000000   5.61999989  57.12999725
C    18.98999977   5.19000006  56.77000046
C    18.61999893   4.56999969  55.52999878
C    19.70999908   4.34999990  54.71000290
C    21.02999878   4.79999971  54.97000122
C    22.06999969   4.65999985  54.01000214
C    23.34000015   5.09000015  54.29999924
C    23.61999893   5.78999996  55.51000214
C    22.62000084   6.00000000  56.43000031
C    21.31000137   5.50000000  56.19999695
C    17.18000031   4.38000011  55.48999786
C    16.51000023   4.78999996  56.68000031
C    15.13000011   4.84000015  56.77999878
C    25.02000046   6.12999964  55.94999695
H    25.40378761   5.40506554  56.66782379
H    20.36000061   6.05999994  58.11999893
H    19.45999908   3.88999987  53.75999832
H    21.77999878   4.09999990  53.13000107
H    24.18000031   4.94999981  53.61999893
H    22.82999992   6.37000036  57.43000031
H    14.63000107   5.03000021  57.72999573
H    25.75000000   6.35999966  55.15999603
H    24.90999985   7.09000015  56.46999741
S    13.97999954   3.63000011  53.18000031
C    11.31999969   3.42000008  53.94000244
C    12.57999992   3.88999987  54.22999954
C    12.90999985   4.50000000  55.48999786
C    11.87999916   4.65999985  56.39999771
C    10.55999947   4.28999996  56.04000092
C     9.44999981   4.55000019  56.88999939
C     8.19000053   4.05999994  56.62000275
C     7.86999989   3.42000008  55.40000153
C     8.89999962   3.17999983  54.52000046
C    10.22999954   3.61999989  54.80999756
C    14.35999966   4.61000013  55.63000107
C    15.06000042   4.19000006  54.47999954
C    16.42000008   3.91000009  54.40999985
C     6.50000000   2.82000017  55.18000031
H     5.91878891   3.53588223  54.59878922
H    11.19999981   2.91000009  52.98999786
H    12.09000015   5.13000011  57.35000229
H     9.67000008   4.99000025  57.85999680
H     7.46000004   4.05999994  57.42000198
H     8.67999935   2.61999989  53.61999893
H    16.92000008   3.54999995  53.52000427
H     6.09000015   2.57999992  56.17000198
H     6.69000053   1.92000008  54.58000183
S    17.61999893   5.72000027  51.95000076
C    20.34000015   5.84999990  51.23000336
C    19.04000092   5.52999973  50.90000153
C    18.65999985   5.00000000  49.62999725
C    19.64999962   4.78999996  48.68000031
C    20.95000076   5.26000023  48.95000076
C    21.94999886   5.05000019  47.95999908
C    23.25000000   5.44000053  48.18000031
C    23.59999847   6.02999973  49.43000031
C    22.70999908   6.11000013  50.47999954
C    21.35000038   5.78000021  50.22999573
C    17.21999931   4.90000010  49.43000031
C    16.54000092   5.32000017  50.59999847
C    15.14999962   5.38999987  50.72999954
C    24.97999954   6.61999989  49.59000015
H    25.57875061   6.03550434  50.28854370
H    20.59000015   6.23000050  52.22000122
H    19.45000076   4.30999994  47.72999573
H    21.63000107   4.65999985  47.00000000
H    23.90000153   5.55000019  47.31999969
H    23.05999947   6.32000017  51.47999573
H    14.70999908   5.46000004  51.72000122
H    25.55000114   6.78999996  48.66000366
H    24.86000061   7.59000015  50.06999969
S    13.96000004   4.09999990  47.12999725
C    11.31999969   3.86000013  47.90999985
C    12.60000038   4.21000004  48.27000046
C    13.01000023   4.69000006  49.54999924
C    11.97999954   4.75000000  50.47999954
C    10.62000084   4.51000023  50.20000076
C     9.52999973   4.72000027  51.10000229
C     8.22000027   4.48999977  50.77000046
C     7.94000053   4.05000019  49.45000076
C     8.93000031   3.89999986  48.50000000
C    10.29999924   4.11000013  48.85000229
C    14.44000053   4.96000004  49.61000061
C    15.08999920   4.56999969  48.40999985
C    16.47999954   4.46000004  48.33000183
C     6.51000023   3.75000000  49.08000183
H     6.11778450   4.37041330  48.27417755
H    11.10999966   3.47000003  46.90999985
H    12.20999908   5.18000031  51.45000076
H     9.68000031   5.03999996  52.12999725
H     7.37999964   4.65000010  51.44000244
H     8.76999950   3.51999998  47.50000000
H    16.90000153   4.17000008  47.36999893
H     5.86000013   3.91000009  49.94999695
H     6.43000031   2.68000007  48.81999969
