96

S    17.45000076   5.38000011  57.67000198
C    20.17000008   5.46999979  56.97999954
C    18.88000107   5.12000036  56.65000153
C    18.51000023   4.57999992  55.38000107
C    19.55999947   4.28999996  54.52000046
C    20.88999939   4.67000008  54.81999969
C    21.94999886   4.56999969  53.87000275
C    23.26999855   4.80999994  54.15000153
C    23.57999992   5.42000008  55.40000153
C    22.60000038   5.60999966  56.35000229
C    21.24000168   5.28999996  56.06999969
C    17.06999969   4.41000032  55.24000168
C    16.35000038   4.78999996  56.40999603
C    14.96000099   4.81999969  56.39999771
C    24.96999931   5.86000013  55.79000092
H    25.39730453   5.26177216  56.59475708
H    20.38000107   5.88999987  57.95999908
H    19.34999847   3.86999989  53.54000092
H    21.73999977   4.00999975  52.97000122
H    24.00000000   4.51999998  53.40000153
H    22.81999969   5.86999989  57.37999725
H    14.51000023   5.15999985  57.32999802
H    25.69000053   5.84000015  54.95999908
H    24.89999962   6.90000010  56.12999725
S    13.88000011   3.47000003  52.84000015
C    11.21999931   3.28000021  53.53000259
C    12.48999977   3.63999987  53.90999603
C    12.81000042   4.26000023  55.17000198
C    11.82000065   4.46999979  56.11000061
C    10.48999977   4.19999981  55.70999908
C     9.40999985   4.39000034  56.62000275
C     8.10999966   4.05999994  56.33999634
C     7.79999971   3.50000000  55.06999969
C     8.80999947   3.32999992  54.15000153
C    10.18000031   3.58000016  54.43999863
C    14.25000000   4.35999966  55.27999878
C    14.98999977   3.98999977  54.13000107
C    16.36999893   3.91000009  54.13000107
C     6.39999962   3.01999998  54.72999954
H     5.68806744   3.70345521  54.26724625
H    10.95999908   2.82000017  52.57999802
H    12.02999973   4.80999994  57.11999893
H     9.57999992   4.61000013  57.67000198
H     7.30999994   4.13999987  57.06999969
H     8.59000015   3.00999999  53.13999939
H    16.94000053   3.48000002  53.30999756
H     5.91000032   2.92000008  55.70999908
H     6.53999996   2.03999996  54.27000046
S    13.76000023   1.36000013  50.06000137
C    11.13000011   0.94999999  50.90999985
C    12.46999931   0.78000003  51.13999939
C    12.96000004   0.05000000  52.28000259
C    12.05999947  -0.39999998  53.22999954
C    10.67000008  -0.20999999  53.06000137
C     9.71000004  -0.78000003  53.95000076
C     8.38999939  -0.88000000  53.56999969
C     7.96000004  -0.19999999  52.41000366
C     8.82000065   0.48000002  51.56999969
C    10.21000004   0.45000002  51.86000061
C    14.39000034   0.27000001  52.36999893
C    14.98999977   0.96000004  51.27999878
C    16.34000015   1.28999996  51.19999695
C     6.53999996  -0.50999999  51.97999954
H     6.25485611  -0.03951231  51.03902435
H    10.82999992   1.62000000  50.11000061
H    12.42000008  -0.88999999  54.13000107
H    10.07999992  -1.13999999  54.91000366
H     7.59999990  -1.31999993  54.16999817
H     8.59000015   0.79999995  50.54999924
H    16.80999947   1.72000003  50.33000183
H     6.30999994  -1.58000004  51.86000061
H     5.89999962  -0.17000002  52.80000305
S    17.65999985   0.05000000  54.75000000
C    20.34000015   0.61000001  54.09000015
C    19.00000000   0.76999998  53.83999634
C    18.48999977   1.29999995  52.60000229
C    19.40000153   1.72000003  51.65000153
C    20.79000092   1.71000004  51.90000153
C    21.77000046   2.22000003  50.98999786
C    23.11000061   2.16999984  51.26999664
C    23.52999878   1.36000013  52.36000061
C    22.65000153   0.88999999  53.29999924
C    21.25000000   1.10000002  53.11999893
C    17.05999947   1.13000000  52.38999939
C    16.47999954   0.45000002  53.48999786
C    15.18000031  -0.05000000  53.47999954
C    25.00000000   1.11000001  52.62000275
H    25.40454292   1.72746170  53.42198944
H    20.85000038   0.14999999  54.93000031
H    18.97999954   1.99000001  50.68999863
H    21.47000122   2.66000009  50.04000092
H    23.82999802   2.53999996  50.54000092
H    23.00000000   0.46999997  54.23999786
H    14.75999928  -0.52999997  54.34999847
H    25.55999947   1.19000006  51.68000031
H    25.23999977   0.09000000  52.91999817
