96

S    17.26000023   5.77000046  58.15000153
C    19.92000008   6.02999973  57.34000397
C    18.63999939   5.59999990  57.04999924
C    18.26000023   4.98000002  55.81999969
C    19.18000031   4.90999985  54.78000259
C    20.52000046   5.27999973  55.06000137
C    21.55999947   5.09000015  54.10999680
C    22.88999939   5.33999968  54.34000015
C    23.25000000   5.98000002  55.56000137
C    22.27000046   6.17999983  56.50000000
C    20.88999939   5.88000011  56.31999969
C    16.82999992   4.77999973  55.72999954
C    16.13999939   5.27999973  56.86000061
C    14.75999928   5.46000004  56.93000031
C    24.69000053   6.28000021  55.93000031
H    25.12430573   5.48970509  56.54230118
H    20.26000023   6.35999966  58.30999756
H    18.90999985   4.57999992  53.77999878
H    21.31000137   4.65999985  53.13999939
H    23.62999916   5.05000019  53.60000229
H    22.56999969   6.57000017  57.47000122
H    14.45000076   5.91000032  57.87000275
H    25.29999924   6.32000017  55.01999664
H    24.72999954   7.23999977  56.45000076
S    13.63000011   4.42000008  53.26000214
C    10.95000076   4.53000021  53.85000229
C    12.23000050   4.76999998  54.29000092
C    12.53999901   5.13000011  55.63999939
C    11.47999954   5.27999973  56.52000046
C    10.14999962   5.05000019  56.07999802
C     9.04999924   5.21000004  56.97000122
C     7.82999992   4.65000010  56.65000153
C     7.57999992   4.21999979  55.31999969
C     8.52999973   4.33999968  54.33000183
C     9.85000038   4.67999983  54.72999954
C    13.99000072   5.12000036  55.80999756
C    14.67000008   4.63000011  54.66999817
C    16.04999924   4.46999979  54.59999847
C     6.24000025   3.60000014  55.00999832
H     5.63237715   4.22906828  54.35948563
H    10.85999966   4.21000004  52.81000137
H    11.57999992   5.51999998  57.56999969
H     9.27999973   5.49000025  57.98999786
H     7.09000015   4.53000021  57.43999863
H     8.30000019   4.00999975  53.30999756
H    16.59000015   4.28000021  53.68000031
H     5.72000027   3.42999983  55.96000290
H     6.44000006   2.64999986  54.48999786
S    17.06999969   6.11999989  51.93999863
C    19.81999969   5.98999977  51.40999603
C    18.53000069   5.73999977  51.00000000
C    18.17000008   5.19000006  49.72999954
C    19.18000031   4.99000025  48.80000305
C    20.52999878   5.25000000  49.09999847
C    21.54000092   5.23000002  48.09999847
C    22.85000038   5.58000040  48.36999893
C    23.13999939   6.07999992  49.66999817
C    22.18000031   6.09000015  50.65000153
C    20.81000137   5.77000046  50.41999817
C    16.73999977   5.23999977  49.45000076
C    16.01000023   5.68000031  50.58000183
C    14.63000107   5.86999989  50.58000183
C    24.51999855   6.65000010  49.93999863
H    25.08098984   5.89727736  50.49388885
H    20.02000046   6.38999987  52.39999771
H    19.02000046   4.84000015  47.72999573
H    21.18999863   4.90000010  47.12999725
H    23.57999992   5.55999994  47.56999969
H    22.40999985   6.57000017  51.59999847
H    14.14000034   6.15000010  51.51000214
H    24.93000031   6.98999977  48.97999573
H    24.37000084   7.59999990  50.45999908
S    13.43000031   4.55999994  47.06999969
C    10.78999996   4.32000017  47.90999985
C    12.05000019   4.79999971  48.15999985
C    12.43999958   5.36000013  49.41999817
C    11.49000072   5.45000029  50.41999817
C    10.14999962   5.05000019  50.19000244
C     9.07999992   5.32000017  51.09000397
C     7.77999973   4.92999983  50.84000015
C     7.50000000   4.28999996  49.59999847
C     8.46000004   4.11000013  48.63999939
C     9.80000019   4.51999998  48.89999771
C    13.89000034   5.52999973  49.45000076
C    14.60000038   5.09000015  48.29999924
C    15.98000050   4.97000027  48.30999756
C     6.06999969   4.05000019  49.16999817
H     5.71423817   4.60498810  48.30194092
H    10.53999996   3.86000013  46.95000076
H    11.90000057   5.88999987  51.32999802
H     9.28999996   6.11000013  51.79999924
H     7.04999971   5.36000013  51.51000214
H     8.14999962   3.72000003  47.67000198
H    16.48999977   4.48999977  47.48000336
H     5.51000023   4.32000017  50.06999969
H     5.92000008   2.98000002  49.02000046
