96

S    17.32999992   4.99000025  58.20000076
C    20.00999832   5.21000004  57.51999664
C    18.75000000   4.82999992  57.15000153
C    18.39999962   4.38000011  55.83000183
C    19.37999916   4.36999989  54.85000229
C    20.69000053   4.76999998  55.20999908
C    21.86000061   4.57999992  54.41999817
C    23.15000153   4.69000006  54.88999939
C    23.38000107   5.38999987  56.10000229
C    22.34000015   5.59000015  56.97000122
C    21.02999878   5.26000023  56.52999878
C    16.97000122   4.21999979  55.66999817
C    16.26000023   4.55000019  56.84999847
C    14.88000011   4.69999981  56.95999908
C    24.79000092   5.79999971  56.49000168
H    25.21826553   5.21470261  57.30370712
H    20.20999908   5.46999979  58.54999924
H    19.04000092   3.97000027  53.89999771
H    21.70000076   4.18000031  53.43000031
H    23.94000053   4.32000017  54.23999786
H    22.46000099   5.80999947  58.02999878
H    14.32000065   4.94999981  57.84999847
H    25.48000145   5.72000027  55.63999939
H    24.82999992   6.83000040  56.86000061
S    13.76999950   3.91999984  53.16999817
C    11.10000038   3.77999997  53.86000061
C    12.38000011   4.09000015  54.26000214
C    12.69999981   4.53000021  55.58000183
C    11.63000011   4.67000008  56.44000244
C    10.31000042   4.30999994  56.06999969
C     9.21000004   4.35999966  56.97999954
C     7.92999983   4.17000008  56.52000046
C     7.63999987   3.84999990  55.17000198
C     8.65999985   3.67000008  54.27000046
C     9.98999977   3.91999984  54.72999954
C    14.14000034   4.61000013  55.77000046
C    14.80999947   4.25000000  54.58000183
C    16.15999985   3.94000006  54.54999924
C     6.25999975   3.40000010  54.72999954
H     5.56778479   4.19212246  54.44455338
H    10.86999989   3.56999993  52.81000137
H    11.77999973   4.96000004  57.48000336
H     9.26999950   4.55999994  58.04000092
H     7.09999990   4.30999994  57.21000290
H     8.60000038   3.24000001  53.27000046
H    16.60000038   3.51000023  53.66000366
H     5.82000017   2.84999990  55.58000183
H     6.32999992   2.75000000  53.85000229
S    13.97999954   1.87999988  50.35999680
C    11.31000042   1.42000008  50.90999985
C    12.61000061   1.28000009  51.32999802
C    12.96000004   0.65999997  52.56999969
C    11.92000008   0.19000000  53.34999847
C    10.57000065   0.44000000  53.01000214
C     9.52999973  -0.16000001  53.77999878
C     8.23000050   0.09000000  53.43000031
C     7.88999987   0.79000002  52.23999786
C     8.86999989   1.18000007  51.36000061
C    10.22999954   0.97000003  51.72000122
C    14.40999985   0.71000004  52.72999573
C    15.06000042   1.41000009  51.68000031
C    16.43000031   1.59999990  51.59000015
C     6.44000006   0.81000000  51.79000092
H     6.22565126   0.00261962  51.08979416
H    11.09000015   1.87999988  49.95999908
H    12.15999985  -0.51999998  54.13000107
H     9.78999996  -0.85000002  54.58000183
H     7.46999979  -0.45000002  54.00000000
H     8.73000050   1.57000005  50.34999847
H    16.87999916   2.16000009  50.77999878
H     5.80999947   0.69999999  52.68000031
H     6.15999985   1.77999997  51.35000229
S    17.79000092  -0.16000001  54.82999802
C    20.48000145   0.45000002  54.26000214
C    19.13999939   0.59999996  53.95999908
C    18.71000099   1.16999996  52.71999741
C    19.56999969   1.87999988  51.90999985
C    20.94000053   1.82999992  52.27000427
C    21.93000031   2.43000007  51.44000244
C    23.26999855   2.20000005  51.62000275
C    23.74000168   1.41000009  52.70000076
C    22.80999947   0.83999997  53.53000259
C    21.40999985   1.01999998  53.36000061
C    17.27000046   1.00000000  52.54000092
C    16.61000061   0.34999999  53.61000061
C    15.22999954   0.25000000  53.76999664
C    25.22000122   1.18000007  52.94000244
H    25.55351639   1.64124382  53.86958313
H    20.86000061  -0.13000000  55.10000229
H    19.27000046   2.33999991  50.97000122
H    21.54999924   2.86000013  50.52000046
H    24.05999947   2.59999990  50.98999786
H    23.11000061   0.17999999  54.34999847
H    14.85999966  -0.35999998  54.59000015
H    25.78000069   1.51999998  52.06999969
H    25.29000092   0.09000000  53.01000214
