96

S    17.15999985   5.65000010  58.09999847
C    19.84000015   5.78999996  57.38999939
C    18.57999992   5.32999992  57.08000183
C    18.27999878   4.69000006  55.84000015
C    19.29999924   4.55999994  54.92000198
C    20.62999916   4.86999989  55.27000046
C    21.68999863   4.67999983  54.34000015
C    22.96999931   5.13999987  54.56999969
C    23.31000137   5.78999996  55.79000092
C    22.27000046   6.01999998  56.65000153
C    20.92000008   5.58000040  56.49000168
C    16.84000015   4.67000008  55.63999939
C    16.10999870   5.14999962  56.76000214
C    14.73000050   5.29999971  56.73999786
C    24.65999985   6.38000011  56.13999939
H    25.12879562   5.75493908  56.90002060
H    20.07999802   6.34999990  58.29000092
H    19.12999916   4.13000011  53.94000244
H    21.40000153   4.13999987  53.43999863
H    23.77000046   4.79999971  53.92000198
H    22.52000046   6.65000010  57.50000000
H    14.14000034   5.56999969  57.61000061
H    25.32999992   6.30999994  55.27000046
H    24.50000000   7.42000008  56.44000244
S    13.66000080   4.05000019  53.06999969
C    10.95999908   4.26999998  53.73000336
C    12.27000046   4.48999977  54.08000183
C    12.61999989   5.05000019  55.35999680
C    11.64000034   5.18000031  56.31999969
C    10.29000092   4.88999987  56.00999832
C     9.31999969   4.78999996  57.04999924
C     8.03999996   4.36999989  56.77000046
C     7.62000036   4.00000000  55.47000122
C     8.60000038   3.97000027  54.50000000
C     9.94999981   4.36999989  54.71000290
C    14.06999969   5.01999950  55.54000092
C    14.73000050   4.41000032  54.43999863
C    16.11999893   4.30000019  54.50000000
C     6.21000004   3.51000023  55.21999741
H     5.77088118   4.18284369  54.48341370
H    10.80000019   3.78999996  52.77000046
H    11.92999935   5.32000017  57.36000061
H     9.56999969   4.88999987  58.09999847
H     7.28999996   4.21999979  57.54000092
H     8.30999947   3.61000013  53.52000427
H    16.48999977   3.93000007  53.54999924
H     5.55000019   3.37000012  56.07999802
H     6.30000019   2.53999996  54.71000290
S    17.67000008   5.95000029  51.93999863
C    20.43999863   5.93999958  51.30000305
C    19.11999893   5.77000046  50.93999863
C    18.79999924   5.21000004  49.66999817
C    19.82999992   4.77999973  48.85000229
C    21.18999863   5.01999950  49.13000107
C    22.18000031   4.90000010  48.11000061
C    23.45999908   5.25000000  48.44999695
C    23.84000015   5.63000011  49.77000427
C    22.86999893   5.79999971  50.72999954
C    21.48999977   5.56999969  50.41999817
C    17.36999893   5.22000027  49.38000107
C    16.62999916   5.55999994  50.54999924
C    15.24000072   5.59000015  50.63000107
C    25.29000092   5.95000029  50.04000092
H    25.68785858   5.38873482  50.88545227
H    20.69999886   6.50000000  52.18999863
H    19.63000107   4.85000038  47.77999878
H    21.81999969   4.61000013  47.11999893
H    24.26000214   5.10999966  47.72999573
H    23.13999939   6.05000019  51.75000000
H    14.65999985   5.98999977  51.45000076
H    25.90999985   5.66999960  49.18000031
H    25.36999893   7.02000046  50.25000000
S    14.15999985   4.46000004  46.97999954
C    11.43000031   4.46999979  47.56000137
C    12.71999931   4.65000010  48.00000000
C    13.04999924   5.07000017  49.33000183
C    11.97999954   5.32999992  50.15999603
C    10.62999916   5.13000011  49.75000000
C     9.55999947   5.29999971  50.66999817
C     8.27000046   5.12000036  50.22999573
C     7.97999954   4.61000013  48.94000244
C     8.98999977   4.39000034  48.02000046
C    10.32999992   4.65999985  48.43000031
C    14.48999977   5.19999981  49.52000046
C    15.21999931   4.90000010  48.34000015
C    16.60000038   4.79999971  48.29000092
C     6.60000038   4.00999975  48.77999878
H     6.02751732   4.55385876  48.02861404
H    11.14999962   4.23999977  46.52999878
H    12.32999992   5.71000004  51.11000061
H     9.72000027   5.55000019  51.70999908
H     7.49000025   5.26000023  50.97000122
H     8.85999966   3.94000006  47.04000092
H    17.13000107   4.44999981  47.41000366
H     6.14000034   4.11999989  49.77000427
H     6.60000038   2.93000007  48.54999924
