96

S    17.14999962   5.50000000  57.90999985
C    19.85999870   5.61999989  57.25000000
C    18.59000015   5.18000031  56.93000031
C    18.29000092   4.74000025  55.59999847
C    19.31999969   4.59999990  54.68999863
C    20.65000153   4.82999992  55.11000061
C    21.73000145   4.73000002  54.19000244
C    23.05000114   4.97000027  54.52000046
C    23.31000137   5.73999977  55.68000031
C    22.27999878   5.95000029  56.56000137
C    20.94000053   5.51999998  56.33999634
C    16.84999847   4.72000027  55.37000275
C    16.11999893   5.09999990  56.52000046
C    14.73999977   5.23999977  56.53999710
C    24.70999908   6.17000008  56.06999969
H    25.06616974   5.56450844  56.90343857
H    19.93000031   6.14000034  58.20000076
H    19.17000008   4.53999996  53.61999893
H    21.54999924   4.42999983  53.15999985
H    23.88999939   4.80999994  53.85000229
H    22.43999863   6.34000015  57.56000137
H    14.19999981   5.66999960  57.37999725
H    25.25000000   6.03999996  55.13000107
H    24.70000076   7.25000000  56.27999878
S    13.61999989   3.98000002  52.95000076
C    10.90000057   4.02999973  53.57999802
C    12.18999958   4.34999990  53.93000031
C    12.61000061   4.85000038  55.20999908
C    11.64000034   5.19000006  56.12999725
C    10.27999973   4.92000008  55.84000015
C     9.26000023   5.12000036  56.81999969
C     7.97999954   4.69000006  56.59999847
C     7.63999987   4.02999973  55.38999939
C     8.63000011   3.75999975  54.47000122
C     9.96999931   4.19000006  54.64000320
C    14.06000042   4.85000038  55.38000107
C    14.77000046   4.44000006  54.22999954
C    16.15999985   4.42999983  54.19000244
C     6.23000050   3.55999994  55.15999603
H     5.71974277   4.08443117  54.35209274
H    10.59999943   3.56999993  52.63999939
H    11.90000057   5.61999989  57.09999847
H     9.63000011   5.53999996  57.76000214
H     7.22000027   4.78999996  57.36999893
H     8.32999992   3.31999993  53.52000427
H    16.72999954   3.95000005  53.40000153
H     5.58000040   3.58999991  56.04000092
H     6.25999975   2.48000002  54.95999908
S    13.50999928   2.07999992  50.15999603
C    10.81999969   1.64000010  50.90000153
C    12.15999985   1.39999998  51.09000397
C    12.63000011   0.78000003  52.29000092
C    11.73999977   0.38000000  53.26000214
C    10.34999943   0.46999997  53.00000000
C     9.38000011  -0.06000000  53.89999771
C     8.03999996  -0.09999999  53.60000229
C     7.57000017   0.51999998  52.41000366
C     8.47000027   1.03999996  51.51000214
C     9.86999989   1.08000004  51.79000092
C    14.06999969   0.92000002  52.48000336
C    14.68999958   1.48000002  51.33999634
C    16.03999901   1.84000003  51.29000092
C     6.10000038   0.34999999  52.14000320
H     5.74503279   0.69076860  51.16738892
H    10.48999977   2.09999990  49.97000122
H    12.01000023  -0.02000000  54.22999954
H     9.63000011  -0.32999998  54.93000031
H     7.42999983  -0.51999998  54.40000153
H     8.19999981   1.50999999  50.56999969
H    16.46999931   2.36000013  50.45000076
H     5.97000027  -0.74000001  52.22000122
H     5.59000015   0.96000004  52.90000153
S    17.32999992   0.64999998  54.85000229
C    20.00000000   1.10000002  54.20999908
C    18.67000008   1.28999996  53.88999939
C    18.22000122   1.86000001  52.64999771
C    19.18000031   2.38000011  51.81000137
C    20.55000114   2.30999994  52.15000153
C    21.59000015   2.54999995  51.20999908
C    22.89999962   2.19000006  51.40999603
C    23.36999893   1.61000001  52.61000061
C    22.36999893   1.36999989  53.52000427
C    20.97999954   1.61000001  53.33000183
C    16.79999924   1.58999991  52.43999863
C    16.20000076   0.87000000  53.50000000
C    14.85000038   0.55000001  53.59000397
C    24.80999947   1.15999997  52.70999908
H    25.33760643   1.65908635  53.52280045
H    20.31999969   0.48999998  55.06000137
H    18.92000008   2.61000013  50.77999878
H    21.40000153   3.00999999  50.24000168
H    23.59999847   2.22000003  50.56999969
H    22.56999969   0.76999998  54.40999985
H    14.48999977   0.08000001  54.50000000
H    25.27000046   1.49000001  51.77000046
H    24.93999863   0.07000000  52.83000183
