96

S    17.34000015   5.09999990  57.85999680
C    20.05000114   5.26000023  57.15000153
C    18.73999977   5.00999975  56.77999878
C    18.34000015   4.69000006  55.45000076
C    19.32999992   4.63999987  54.47999954
C    20.69000053   4.84000015  54.81999969
C    21.75000000   4.63000011  53.88999939
C    23.09000015   4.78999996  54.13000107
C    23.42000008   5.26999998  55.43000031
C    22.43000031   5.55999994  56.32999802
C    21.05999947   5.25000000  56.14999771
C    16.90000153   4.55999994  55.28999710
C    16.22999954   4.88000011  56.49000168
C    14.85999966   5.07999992  56.58000183
C    24.84999847   5.66999960  55.75000000
H    25.24821472   5.14378738  56.61753845
H    20.29000092   5.55999994  58.15999985
H    19.01000023   4.41000032  53.47000122
H    21.52000046   4.25000000  52.90000153
H    23.84000015   4.61000013  53.36000061
H    22.63000107   6.09000015  57.25999832
H    14.37000084   5.50000000  57.45999908
H    25.55999947   5.36999989  54.95999908
H    24.87999916   6.75000000  55.89000320
S    13.67000008   3.84999990  52.97999954
C    10.95999908   3.70000005  53.74000168
C    12.28000069   3.93000007  54.08000183
C    12.65999985   4.46000004  55.34999847
C    11.61999893   4.77999973  56.20999908
C    10.26000023   4.53999996  55.90000153
C     9.26000023   4.77999973  56.88999939
C     7.95000029   4.59000015  56.52999878
C     7.57000017   4.09999990  55.25000000
C     8.52000046   3.93000007  54.27000046
C     9.89000034   4.05000019  54.59999847
C    14.07999992   4.74000025  55.45999908
C    14.77000046   4.42999983  54.26000214
C    16.13999939   4.28000021  54.13999939
C     6.14000034   3.65999985  55.04000092
H     5.61950111   4.26606035  54.29846954
H    10.75000000   3.32999992  52.74000168
H    11.96000004   5.23000002  57.14000320
H     9.50000000   5.19999981  57.85999680
H     7.17000008   4.67999983  57.28000259
H     8.28999996   3.44000006  53.31999969
H    16.59000015   4.26999998  53.15000153
H     5.66999960   3.75000000  56.02000427
H     6.05000019   2.59000015  54.79000092
S    14.04999924   1.93000007  50.08999634
C    11.39999962   1.33000004  50.76000214
C    12.75000000   1.13999999  51.00000000
C    13.21000004   0.48999998  52.18999863
C    12.27000046  -0.02000000  53.06999969
C    10.90000057   0.25999999  52.88000107
C     9.90999985  -0.14000000  53.81999969
C     8.56999969  -0.02000000  53.56999969
C     8.09000015   0.69999999  52.43999863
C     9.02000046   1.13000000  51.52000046
C    10.42000008   0.96000004  51.72000122
C    14.60999966   0.78000003  52.41000366
C    15.21999931   1.54999995  51.38000107
C    16.54999924   1.92000008  51.39999771
C     6.61000013   0.94999999  52.22999954
H     6.12752008   0.52428269  51.35018158
H    10.98000050   1.87999988  49.93000031
H    12.57999992  -0.63000000  53.92000198
H    10.32999992  -0.46999997  54.77000427
H     7.95000029  -0.59000003  54.26000214
H     8.69000053   1.61000001  50.61000061
H    17.01000023   2.39999986  50.54000092
H     6.15000010   0.52999997  53.13000107
H     6.53999996   2.03999996  52.19999695
S    17.82999992   0.24000001  54.82999802
C    20.51000214   0.55000001  54.16999817
C    19.19000053   0.74000001  53.80000305
C    18.78000069   1.33000004  52.56000137
C    19.73999977   1.98000002  51.81000137
C    21.11000061   1.76999998  52.09000015
C    22.11000061   2.31999993  51.25000000
C    23.45000076   2.09000015  51.49000168
C    23.75999832   1.43999994  52.70999908
C    22.86000061   1.14999998  53.69999695
C    21.47999954   1.13000000  53.33000183
C    17.32999992   1.42000008  52.44999695
C    16.72000122   0.74000001  53.54000092
C    15.34999943   0.46999997  53.55999756
C    25.22000122   1.08999991  52.88999939
H    25.59029961   1.44605756  53.85135269
H    20.72999954   0.16000001  55.15999603
H    19.40000153   2.61999989  51.00000000
H    21.76000214   3.05000019  50.52000046
H    24.27000046   2.47000003  50.87999725
H    23.23999786   0.75999999  54.64000320
H    14.78000069  -0.02000000  54.34000015
H    25.81999969   1.54999995  52.09000015
H    25.35000038   0.01000000  52.81000137
