96

S    17.07999992   5.40999985  58.13999939
C    19.81999969   5.44000053  57.50999832
C    18.53000069   5.12000036  57.15999985
C    18.15999985   4.57999992  55.89000320
C    19.11999893   4.34999990  54.92000198
C    20.43000031   4.74000025  55.27999878
C    21.40000153   4.76000023  54.23999786
C    22.67000008   5.23000002  54.45999908
C    23.13999939   5.55000019  55.76000214
C    22.19000053   5.64000034  56.76000214
C    20.85000038   5.21000004  56.56999969
C    16.72999954   4.33999968  55.72000122
C    16.01000023   4.84000015  56.83000183
C    14.63000107   4.88999987  56.81999969
C    24.60000038   5.89999962  55.91999817
H    25.06846809   5.18310165  56.59431076
H    20.00999832   5.84999990  58.50000000
H    18.89999962   4.21000004  53.86000061
H    21.04000092   4.59000015  53.22999954
H    23.39999962   5.35000038  53.66000366
H    22.46000099   6.10000038  57.70000076
H    14.14999962   5.36000013  57.68000031
H    24.97999954   5.65000010  54.92000198
H    24.75000000   6.94999981  56.18999863
S    13.57999992   3.68999982  53.25000000
C    10.78999996   3.71000004  53.86000061
C    12.10999966   3.84999990  54.22999954
C    12.43999958   4.25000000  55.56999969
C    11.42000008   4.36999989  56.49000168
C    10.06999969   4.07000017  56.16000366
C     8.97999954   4.13000011  57.05999756
C     7.69999981   3.76999998  56.70000076
C     7.42000008   3.25999999  55.40999985
C     8.43999958   3.21000004  54.47999954
C     9.72999954   3.72000003  54.80999756
C    13.88000011   4.38000011  55.75000000
C    14.65000057   4.00999975  54.62999725
C    16.03000069   3.91999984  54.58000183
C     6.03999996   2.70000005  55.14999771
H     5.56214809   3.35615492  54.42252350
H    10.59999943   3.28999996  52.88000107
H    11.73999977   4.61000013  57.50000000
H     9.15000057   4.51999998  58.06999969
H     6.80999994   3.96000004  57.29000092
H     8.28999996   2.73000002  53.52000427
H    16.56999969   3.63000011  53.68000031
H     5.49000025   2.69000006  56.10000229
H     6.19000006   1.69000006  54.72999954
S    17.34000015   5.63000011  52.09000015
C    20.02000046   5.96000004  51.38999939
C    18.73999977   5.60999966  51.00999832
C    18.45000076   5.21000004  49.65999985
C    19.47999954   4.94000006  48.77999878
C    20.79000092   5.38000011  49.06999969
C    21.78999901   5.52999973  48.06000137
C    23.01000214   6.10000038  48.36000061
C    23.25000000   6.57999992  49.66999817
C    22.30999947   6.46000004  50.66999817
C    21.02000046   5.93999958  50.38000107
C    17.00000000   5.19000006  49.51000214
C    16.26000023   5.42999983  50.70000076
C    14.88000011   5.51999998  50.76000214
C    24.67000008   6.98999977  49.98000336
H    25.20986176   6.27255249  50.59799957
H    20.17000008   6.44000006  52.35000229
H    19.26000023   4.56999969  47.78999710
H    21.52000046   5.15999985  47.08000183
H    23.85000038   6.11999989  47.67000198
H    22.50999832   6.71000004  51.70999908
H    14.34999943   5.82000017  51.66999817
H    25.23999977   7.16000032  49.06000137
H    24.75000000   8.00000000  50.40999985
S    13.78999901   4.55999994  47.09000015
C    11.05999947   4.36999989  47.70000076
C    12.35000038   4.61000013  48.11999893
C    12.67000008   4.88999987  49.48999786
C    11.67000008   4.94000006  50.44000244
C    10.34000015   4.63000011  50.06000137
C     9.34000015   4.69000006  51.06999969
C     8.05000019   4.42999983  50.68000031
C     7.76000023   3.91000009  49.38999939
C     8.69000053   4.01999998  48.39000320
C    10.03000069   4.42000008  48.68000031
C    14.09999943   5.05999994  49.68999863
C    14.84000015   4.82999992  48.50000000
C    16.21999931   4.88999987  48.39000320
C     6.38000011   3.35000014  49.09000015
H     5.98111343   3.94832993  48.27085876
H    10.78999996   4.02999973  46.70999908
H    11.97999954   5.13999987  51.46999741
H     9.56999969   5.07999992  52.05999756
H     7.23000002   4.69999981  51.32999802
H     8.47999954   3.68999982  47.37999725
H    16.75000000   4.61000013  47.49000168
H     5.69000006   3.42999983  49.93999863
H     6.53999996   2.31999993  48.74000168
