96

S    17.28999901   4.94999981  58.02000046
C    20.00999832   4.96000004  57.28000259
C    18.68999863   4.76000023  56.93999863
C    18.35000038   4.61999989  55.56000137
C    19.36000061   4.67000008  54.61999893
C    20.73999786   4.75000000  54.93000031
C    21.77999878   4.77999973  53.95999908
C    23.08000183   5.05999994  54.34000015
C    23.39999962   5.36000013  55.68999863
C    22.39000130   5.36999989  56.60999680
C    21.04000092   5.00999975  56.31000137
C    16.90999985   4.53999996  55.37000275
C    16.25000000   4.86999989  56.58000183
C    14.86999989   4.78999996  56.70000076
C    24.77999878   5.88000011  56.02000427
H    25.29154587   5.25477791  56.75179672
H    20.26000023   5.25000000  58.29999924
H    19.19999886   4.56999969  53.54999924
H    21.55999947   4.67000008  52.90000153
H    23.85000038   5.09999990  53.57999802
H    22.65000153   5.61999989  57.63999939
H    14.42000008   4.86999989  57.69000244
H    25.31999969   6.05000019  55.07999802
H    24.73999977   6.83000040  56.56999969
S    13.75000000   4.33999968  52.84000015
C    11.06999969   4.07999992  53.54999924
C    12.35999966   4.33999968  53.94000244
C    12.72999954   4.51999998  55.31000137
C    11.75000000   4.69999981  56.26999664
C    10.40999985   4.51000023  55.86000061
C     9.35999966   4.61999989  56.81999969
C     8.10999966   4.18000031  56.47999573
C     7.75000000   3.84999990  55.14999771
C     8.73000050   3.70000005  54.19000244
C    10.05000019   4.07000017  54.54000092
C    14.15999985   4.67000008  55.50000000
C    14.80999947   4.51000023  54.25000000
C    16.20000076   4.44000006  54.15999985
C     6.32000017   3.51000023  54.79999924
H     5.91462278   4.25674772  54.11725616
H    10.98999977   3.65000010  52.55000305
H    11.94000053   4.94999981  57.31999969
H     9.52999973   4.90999985  57.85999680
H     7.44999981   4.28000021  57.35000229
H     8.43000031   3.51000023  53.16999817
H    16.72999954   4.25000000  53.23999786
H     5.82999992   3.33999991  55.77000046
H     6.30999994   2.52999997  54.29000092
S    14.32999992   1.94999993  50.08999634
C    11.64999962   1.63000000  50.84000015
C    12.97999954   1.52999997  51.16000366
C    13.45000076   0.86000001  52.34000397
C    12.51000023   0.28999999  53.16999817
C    11.11999989   0.39000002  52.94000244
C    10.13000011  -0.34000003  53.66000366
C     8.80000019  -0.28999999  53.34000015
C     8.39999962   0.50999999  52.22999954
C     9.31999969   1.12000000  51.39999771
C    10.70000076   1.08999991  51.75000000
C    14.89999962   0.87000000  52.43999863
C    15.50000000   1.58000004  51.38000107
C    16.86000061   1.87999988  51.38000107
C     6.94999981   0.88999999  52.11000061
H     6.44307709   0.38307673  51.28892899
H    11.33999920   2.07999992  49.89999771
H    12.79999924  -0.35999998  54.00000000
H    10.46000004  -0.88999999  54.54000092
H     8.03999996  -0.69999999  54.01000214
H     9.06999969   1.81999993  50.61000061
H    17.38000107   2.38999987  50.58000183
H     6.51000023   0.61000001  53.08000183
H     6.89000034   1.98000002  51.97000122
S    18.27000046   0.29999998  54.66999817
C    20.93000031   0.88999999  53.95999908
C    19.57999992   1.02999997  53.73000336
C    19.05999947   1.70000005  52.56999969
C    19.96999931   2.21000004  51.66999817
C    21.37000084   2.03999996  51.84999847
C    22.23999977   2.71000004  50.94999695
C    23.59000015   2.84000015  51.20999908
C    24.10000038   2.22000003  52.37999725
C    23.26000023   1.50000000  53.20000076
C    21.87000084   1.31999993  52.98999786
C    17.60000038   1.59999990  52.52999878
C    16.98999977   0.93999994  53.61999893
C    15.67999935   0.48000002  53.54000092
C    25.48999977   2.59000015  52.83000183
H    25.79570007   2.14211249  53.77553940
H    21.28000069   0.41000003  54.87999725
H    19.68000031   2.80999994  50.80999756
H    21.80999947   3.17999983  50.06999969
H    24.23000145   3.38999987  50.52999878
H    23.59999847   1.19000006  54.18000031
H    15.32999992  -0.08000001  54.40000153
H    25.55999947   3.68999982  52.88999939
H    26.18999863   2.27999997  52.04000092
