96

S    17.13999939   5.00999975  57.88999939
C    19.75000000   5.40999985  57.14000320
C    18.51000023   4.94000006  56.76000214
C    18.18000031   4.48000002  55.45000076
C    19.20999908   4.40000010  54.52999878
C    20.48000145   4.92999983  54.86000061
C    21.54999924   4.88999987  53.92000198
C    22.84000015   5.21000004  54.26000214
C    23.11000061   5.75000000  55.54999924
C    22.09000015   5.89999962  56.45999908
C    20.78000069   5.44000053  56.17000198
C    16.73999977   4.33999968  55.34999847
C    16.03999901   4.67000008  56.53999710
C    14.65999985   4.86000013  56.49000168
C    24.51999855   6.15000010  55.93000031
H    25.03960991   5.29584551  56.36419296
H    19.89999962   5.64000034  58.20000076
H    18.97999954   4.03999996  53.53000259
H    21.25999832   4.35999966  53.01000214
H    23.65999985   4.86000013  53.63999939
H    22.30999947   6.19000006  57.48000336
H    14.06999969   5.15999985  57.35000229
H    25.10000038   6.54999971  55.08999634
H    24.51999855   7.00999975  56.60999680
S    13.53999996   3.65999985  52.88000107
C    10.86999989   3.53999996  53.67000198
C    12.15999985   3.93000007  53.95999908
C    12.48999977   4.53999996  55.20999908
C    11.46000004   4.81999969  56.09000397
C    10.10000038   4.51999998  55.79999924
C     9.07999992   4.59000015  56.79000092
C     7.79999971   4.21000004  56.49000168
C     7.50999975   3.40999985  55.34999847
C     8.51000023   3.30000019  54.40999985
C     9.81000042   3.84999990  54.55999756
C    13.94000053   4.61000013  55.31999969
C    14.63999939   4.07999992  54.20999908
C    16.02000046   3.94000006  54.22000122
C     6.12999964   2.82999992  55.13000107
H     5.58526516   3.37473512  54.35887909
H    10.80999947   2.89999986  52.78999710
H    11.73999977   5.09999990  57.09999847
H     9.36999989   4.88000011  57.80000305
H     7.09000015   4.32000017  57.30999756
H     8.38999939   2.68000007  53.52000427
H    16.62999916   3.78999996  53.33000183
H     5.55999994   2.86000013  56.06999969
H     6.30000019   1.79000008  54.84000397
S    13.96999931   1.56000006  50.26000214
C    11.28000069   0.93000001  50.80999756
C    12.60000038   0.90999997  51.18999863
C    13.12999916   0.34999999  52.39999771
C    12.22000027  -0.28999999  53.22000122
C    10.82999992  -0.24000001  52.94000244
C     9.89999962  -0.71999997  53.90999603
C     8.53999996  -0.69999999  53.70999908
C     8.09000015  -0.03000000  52.54000092
C     8.93999958   0.44000000  51.56999969
C    10.36000061   0.38000000  51.72999954
C    14.55000019   0.59000003  52.61000061
C    15.18000031   1.25000000  51.52999878
C    16.54000092   1.56000006  51.45999908
C     6.61999989   0.25999999  52.32999802
H     6.07404280  -0.37813181  51.63514709
H    10.95000076   1.44999993  49.92000198
H    12.48999977  -0.82999998  54.12000275
H    10.36999893  -1.04999995  54.82999802
H     7.92999983  -0.97000003  54.55999756
H     8.63000011   0.97999996  50.68000031
H    16.90999985   2.00999999  50.54999924
H     6.15000010   0.28000000  53.31999969
H     6.54999971   1.30999994  52.01000214
S    17.97000122  -0.04000000  54.75999832
C    20.62000084   0.69999999  54.10999680
C    19.27000046   0.69999999  53.81999969
C    18.78000069   1.29999995  52.61000061
C    19.70999908   1.87000012  51.76000214
C    21.09999847   1.82999992  52.02000046
C    22.01999855   2.51999998  51.18999863
C    23.36000061   2.31999993  51.38000107
C    23.85999870   1.65999997  52.52999878
C    23.00000000   1.13000000  53.46000290
C    21.60000038   1.18000007  53.20999908
C    17.32999992   1.18000007  52.55000305
C    16.72999954   0.41000003  53.56999969
C    15.38000011   0.07000000  53.60000229
C    25.35000038   1.72000003  52.76000214
H    25.69884109   1.15046525  53.62142181
H    20.81999969   0.19000000  55.05000305
H    19.37999916   2.44000006  50.90000153
H    21.78999901   2.91000009  50.20000076
H    24.04999924   2.63999987  50.59999847
H    23.29000092   0.82999998  54.47000122
H    14.98000050  -0.59000003  54.36999893
H    25.46999931   2.80999994  52.85999680
H    25.84000015   1.36999989  51.84999847
