96

S    17.14999962   5.53999996  57.84999847
C    19.79999924   5.77000046  57.11999893
C    18.52000046   5.46000004  56.72999954
C    18.13999939   4.97000027  55.44000244
C    19.15999985   4.86999989  54.52000046
C    20.52000046   5.10999966  54.85000229
C    21.63999939   5.13000011  53.97999573
C    22.93000031   5.46000004  54.31999969
C    23.21000099   5.84999990  55.65999985
C    22.18000031   5.82999992  56.56999969
C    20.84000015   5.52999973  56.18999863
C    16.69000053   4.82999992  55.34000015
C    16.02000046   5.10999966  56.55000305
C    14.65999985   5.40000010  56.56000137
C    24.56999969   6.44000006  55.97000122
H    25.13895035   5.72169828  56.56028748
H    19.85999870   5.92000008  58.20000076
H    18.96000099   4.56999969  53.48999786
H    21.45000076   4.86999989  52.94000244
H    23.75999832   5.47999954  53.61000061
H    22.36999893   6.19999981  57.57999802
H    14.23999977   5.84000015  57.45999908
H    25.03000069   6.61999989  54.99000168
H    24.44999886   7.32999992  56.59999847
S    13.38000107   4.17000008  53.02000046
C    10.72000027   4.28999996  53.72000122
C    12.01000023   4.61000013  54.05000305
C    12.41000080   5.12000036  55.34000015
C    11.43000031   5.22000027  56.31000137
C    10.06999969   5.09000015  55.97000122
C     9.03999996   5.09999990  56.95000076
C     7.75000000   4.74000025  56.63000107
C     7.42000008   4.32999992  55.31000137
C     8.38999939   4.13999987  54.34999847
C     9.72000027   4.51999998  54.68999863
C    13.86000061   5.19999981  55.43000031
C    14.50000000   4.55999994  54.34000015
C    15.88999939   4.53000021  54.22999954
C     5.98999977   3.98999977  54.95999908
H     5.63335609   4.60342836  54.13258743
H    10.53999996   3.86000013  52.74000168
H    11.78999996   5.35000038  57.32999802
H     9.25000000   5.35000038  57.98999786
H     6.94999981   4.98000002  57.31999969
H     8.19999981   3.68999982  53.37999725
H    16.39999962   4.26999998  53.30999756
H     5.40999985   4.15000010  55.87999725
H     5.80999947   2.93000007  54.75000000
S    13.61999989   2.19000006  49.99000168
C    10.85999966   2.07999992  50.76000214
C    12.20000076   1.81999993  50.97999954
C    12.56999969   1.21000004  52.22000122
C    11.57999992   0.79000002  53.09000015
C    10.19999981   0.92000002  52.81999969
C     9.19999981   0.34999999  53.66000366
C     7.88000011   0.52999997  53.34999847
C     7.49000025   1.28000009  52.21000290
C     8.43999958   1.84000003  51.39999771
C     9.82999992   1.65999997  51.63999939
C    14.01000023   1.08000004  52.39999771
C    14.68999958   1.65999997  51.31000137
C    16.03000069   2.00999999  51.37000275
C     6.01000023   1.48000002  51.95999908
H     5.79668856   0.78318298  51.14941788
H    10.53999996   2.64999986  49.88999939
H    11.89000034   0.16000001  53.92000198
H     9.57999992  -0.08000001  54.58000183
H     7.11000013   0.25000000  54.06999969
H     8.17000008   2.33999991  50.47000122
H    16.39999962   2.61999989  50.54999924
H     5.38999987   1.28000009  52.84000015
H     5.82000017   2.52999997  51.70000076
S    17.20000076   0.43000001  54.82999802
C    19.93000031   0.83999997  54.34000015
C    18.61999893   1.07000005  53.97999573
C    18.25000000   1.66999996  52.72999573
C    19.27000046   2.27999997  52.02000046
C    20.62999916   2.19000006  52.39999771
C    21.63999939   2.77999997  51.59000015
C    22.96999931   2.59000015  51.88000107
C    23.36000061   1.70000005  52.90999985
C    22.36000061   1.11000001  53.64999771
C    20.96999931   1.38000000  53.54000092
C    16.84000015   1.54999995  52.43000031
C    16.15999985   0.85000002  53.46000290
C    14.78000069   0.71000004  53.52000427
C    24.82000160   1.31999993  53.06000137
H    25.45733643   2.07063985  53.52738190
H    20.20999908   0.28999999  55.22999573
H    19.09000015   2.79999995  51.07999802
H    21.37000084   3.28000021  50.65999985
H    23.68999863   3.05999994  51.20999908
H    22.56000137   0.34000003  54.38999939
H    14.27999973   0.23000000  54.34999847
H    25.15000153   0.93000001  52.09999847
H    24.86999893   0.46999997  53.75999832
