96

S    17.07999992   5.38999987  58.06999969
C    19.80999947   5.59000015  57.34000397
C    18.50000000   5.32999992  57.01000214
C    18.22000122   4.69999981  55.75000000
C    19.20999908   4.56999969  54.79999924
C    20.52999878   5.00999975  55.02999878
C    21.59000015   4.90999985  54.08000183
C    22.89999962   5.13000011  54.41999817
C    23.21000099   5.50000000  55.76000214
C    22.21999931   5.63000011  56.70000076
C    20.85000038   5.42999983  56.38000107
C    16.79000092   4.48999977  55.56999969
C    16.05999947   4.78999996  56.75000000
C    14.67000008   4.84000015  56.77999878
C    24.61999893   5.88999987  56.17000198
H    24.97808075   5.20248461  56.93629074
H    20.02000046   6.03999996  58.30999756
H    18.96000099   4.17000008  53.81999969
H    21.31000137   4.57999992  53.08000183
H    23.64999962   5.14999962  53.63999939
H    22.43000031   5.86000013  57.74000168
H    14.15999985   5.13999987  57.69000244
H    25.26000023   5.78000021  55.27999878
H    24.61000061   6.93000031  56.52999878
S    13.59000015   3.55999994  53.22000122
C    10.85999966   3.58999991  53.87000275
C    12.15999985   3.89999986  54.20000076
C    12.51999950   4.28999996  55.52999878
C    11.46000004   4.44999981  56.39999771
C    10.11000061   4.23999977  56.05999756
C     9.02999973   4.28999996  56.98999786
C     7.73000002   3.97000027  56.65999985
C     7.42999983   3.51000023  55.35999680
C     8.42000008   3.38999987  54.40999985
C     9.76000023   3.73000002  54.75999832
C    13.94999981   4.53999996  55.61000061
C    14.70000076   4.15999985  54.45999908
C    16.07999992   4.05999994  54.43999863
C     6.02999973   3.05000019  55.01999664
H     5.82391262   3.31293869  53.98245621
H    10.69000053   3.09999990  52.91999817
H    11.61999893   4.85000038  57.39999771
H     9.23999977   4.55000019  58.02000046
H     6.96000004   4.00000000  57.43000031
H     8.21000004   2.98000002  53.43000031
H    16.64999962   3.79999995  53.55999756
H     5.49000025   3.72000003  55.70000076
H     5.78999996   2.02999997  55.34999847
S    13.76000023   1.51999998  50.00000000
C    11.10000038   1.23000002  50.76000214
C    12.42000008   0.97000003  51.03000259
C    12.86000061   0.23000000  52.18000031
C    11.92999935  -0.13000000  53.13000107
C    10.54999924   0.14000000  52.97999954
C     9.52000046  -0.41999999  53.79000092
C     8.21000004  -0.46999997  53.37999725
C     7.82000017   0.29999998  52.23999786
C     8.78999996   0.86000001  51.44000244
C    10.18000031   0.75000000  51.72999954
C    14.29999924   0.35999998  52.30999756
C    14.93999958   1.02999997  51.24000168
C    16.22999954   1.53999996  51.27999878
C     6.40999985   0.23000000  51.69000244
H     6.28844166  -0.49935019  50.88914490
H    10.72999954   1.61000001  49.80999756
H    12.20999908  -0.90000004  53.85000229
H     9.77999973  -1.03999996  54.64000320
H     7.46000004  -1.07000005  53.88000107
H     8.59000015   1.42000008  50.52999878
H    16.77999878   1.88999999  50.40999985
H     5.69000006   0.09999999  52.50999832
H     6.17999983   1.23000002  51.30000305
S    17.53000069   0.13000000  54.80999756
C    20.13000107   0.93000001  54.22000122
C    18.78999901   1.03999996  53.95000076
C    18.38000107   1.64000010  52.71999741
C    19.29999924   2.30999994  51.93999863
C    20.68000031   2.09000015  52.16999817
C    21.68000031   2.56999993  51.26999664
C    23.02000046   2.37000012  51.51000214
C    23.45999908   1.81999993  52.74000168
C    22.53000069   1.43999994  53.68000031
C    21.14999962   1.39999998  53.34000015
C    16.98999977   1.34000003  52.43000031
C    16.43000031   0.55000001  53.47999954
C    15.13000011   0.07000000  53.40999985
C    24.94999886   1.65000010  52.95999908
H    25.19305420   1.80727041  54.01085281
H    20.53999901   0.56999999  55.15999603
H    18.98999977   2.89000010  51.06999969
H    21.35999870   3.08999991  50.37000275
H    23.77000046   2.82000017  50.86000061
H    22.81999969   1.12000000  54.68000031
H    14.78999996  -0.61000001  54.18000031
H    25.45000076   2.39999986  52.32999802
H    25.20999908   0.61000001  52.72999573
