96

S    17.09000015   5.40000010  57.81999969
C    19.76000023   5.60999966  57.11000061
C    18.48999977   5.22000027  56.75000000
C    18.18000031   4.63999987  55.47000122
C    19.20999908   4.61000013  54.54000092
C    20.51000214   5.07000017  54.84000397
C    21.63000107   4.96000004  53.96999741
C    22.92000008   5.21000004  54.38999939
C    23.21000099   5.64000034  55.70999908
C    22.14999962   5.78999996  56.56999969
C    20.81000137   5.58000040  56.16000366
C    16.75000000   4.40000010  55.33000183
C    16.05999947   4.80999994  56.50000000
C    14.67000008   4.88999987  56.56000137
C    24.63999939   5.75999975  56.19999695
H    25.01010895   4.97707510  56.86192322
H    19.93000031   6.09000015  58.06999969
H    18.94000053   4.09000015  53.62999725
H    21.51000023   4.59999990  52.95000076
H    23.72999954   4.94000006  53.70999908
H    22.27999878   6.00000000  57.63000107
H    14.13000011   5.05000019  57.48000336
H    25.26000023   5.92999983  55.31999969
H    24.80999947   6.70000029  56.72999954
S    13.53000069   3.86000013  52.84999847
C    10.88999939   3.75999975  53.56999969
C    12.15000057   4.18000031  53.92000198
C    12.55000019   4.63000011  55.21999741
C    11.56999969   4.77999973  56.18000031
C    10.26000023   4.32000017  55.91999817
C     9.21000004   4.33999968  56.88999939
C     7.88000011   4.13000011  56.63999939
C     7.60999966   3.51999998  55.38999939
C     8.57999992   3.40000010  54.43000031
C     9.90999985   3.88000011  54.59000015
C    14.00000000   4.67000008  55.34999847
C    14.65000057   4.21999979  54.18000031
C    16.03000069   4.00000000  54.20999908
C     6.17999983   3.09999990  55.11000061
H     5.63939285   3.83977771  54.51959991
H    10.65999985   3.32999992  52.60000229
H    11.87000084   5.13999987  57.15999985
H     9.51000023   4.65999985  57.88999939
H     7.14999962   4.13000011  57.44999695
H     8.50000000   3.02999997  53.40999985
H    16.57999992   3.73000002  53.30999756
H     5.71000004   2.89000010  56.07999802
H     6.30999994   2.16000009  54.55999756
S    17.71000099   5.77000046  51.75000000
C    20.28000069   6.19000006  50.87999725
C    19.03000069   5.71000004  50.56999969
C    18.81000137   4.90999985  49.40000153
C    19.80999947   4.73000002  48.46000290
C    21.07999992   5.28999996  48.69999695
C    22.20999908   4.86000013  47.94000244
C    23.48999977   5.10999966  48.34999847
C    23.74000168   5.78999996  49.56999969
C    22.67000008   6.19000006  50.34999847
C    21.31999969   6.00000000  49.93000031
C    17.36999893   4.67000008  49.34999847
C    16.64999962   5.14999962  50.47000122
C    15.27999973   5.38999987  50.54000092
C    25.10999870   6.17000008  50.06999969
H    25.57737732   5.41936064  50.70733643
H    20.45000076   6.65999985  51.84000015
H    19.60000038   4.11999989  47.57999802
H    21.90000153   4.32999992  47.04000092
H    24.34999847   4.92999983  47.70000076
H    22.79000092   6.51000023  51.38000107
H    14.84000015   5.86999989  51.40999603
H    25.69999886   6.38999987  49.16999817
H    25.05000114   7.11999989  50.61999893
S    14.11999893   4.28999996  46.95000076
C    11.36999989   4.33999968  47.57999802
C    12.68000031   4.48999977  47.97000122
C    13.09000015   4.82999992  49.29999924
C    12.07999992   5.23999977  50.15999603
C    10.73999977   4.86000013  49.93000031
C     9.68999958   5.07000017  50.86999893
C     8.36999989   4.90999985  50.54000092
C     8.01999950   4.53000021  49.20999908
C     9.02000046   4.15000010  48.34999847
C    10.39999962   4.39000034  48.61999893
C    14.53999996   4.88999987  49.47000122
C    15.25000000   4.48999977  48.30999756
C    16.61999893   4.28999996  48.22999954
C     6.58999968   4.26000023  48.80000305
H     6.14393234   4.90431976  48.04239273
H    11.10999966   4.05999994  46.56999969
H    12.35999966   5.71000004  51.09000397
H    10.05000019   5.55999994  51.77999878
H     7.60999966   5.09999990  51.29000092
H     8.71999931   3.81000018  47.36000061
H    17.13000107   4.07999992  47.29999924
H     5.97000027   4.23999977  49.71000290
H     6.53999996   3.23000002  48.43000031
