96

S    16.97999954   5.78000021  57.90000153
C    19.70000076   5.45000029  57.22999954
C    18.37000084   5.26999998  56.93000031
C    17.97999954   4.86000013  55.61999893
C    18.94000053   4.56999969  54.65999985
C    20.31999969   4.71000004  54.95999908
C    21.31999969   4.53000021  53.95999908
C    22.63000107   4.86000013  54.22999954
C    23.01000214   5.40999985  55.47999954
C    22.04999924   5.55999994  56.45999908
C    20.69999886   5.15999985  56.26999664
C    16.53000069   4.90000010  55.48999786
C    15.85000038   5.55999994  56.55000305
C    14.47000027   5.71000004  56.56999969
C    24.44000053   5.84000015  55.68000031
H    24.81790543   5.32661963  56.56415558
H    20.03000069   6.01000023  58.09999847
H    18.63999939   4.48000002  53.61999893
H    20.90999985   4.28000021  52.97999954
H    23.39999962   4.67000008  53.48999786
H    22.37999916   6.02999973  57.37999725
H    13.96000004   6.03999996  57.47000122
H    25.09000015   5.77000046  54.79999924
H    24.34000015   6.91999960  55.84999847
S    13.53000069   4.03999996  53.02000046
C    10.82999992   3.94000006  53.68000031
C    12.09000015   4.39000034  54.00000000
C    12.36999989   4.98000002  55.27000046
C    11.31999969   5.17000008  56.14999771
C     9.98999977   4.80999994  55.79999924
C     8.86999989   5.13000011  56.63000107
C     7.59999990   4.75000000  56.27999878
C     7.35000038   4.09000015  55.05000305
C     8.42000008   3.67000008  54.29000092
C     9.72999954   4.13000011  54.55999756
C    13.80000019   5.19000006  55.45999908
C    14.51000023   4.69999981  54.34000015
C    15.85999966   4.39000034  54.36999893
C     5.92999983   3.61000013  54.84000397
H     5.45350456   4.15050220  54.02213669
H    10.62000084   3.50000000  52.70999908
H    11.52999973   5.53999996  57.15000153
H     9.11000061   5.49000025  57.62000275
H     6.78999996   4.88999987  56.98999786
H     8.23999977   2.98000002  53.47000122
H    16.36999893   3.89999986  53.54000092
H     5.33999968   3.82999992  55.73999786
H     6.00000000   2.51999998  54.72000122
S    17.02999878   6.05999994  51.88000107
C    19.77000046   6.09000015  51.33999634
C    18.48999977   5.77000046  50.93000031
C    18.23999977   5.09000015  49.68999863
C    19.27999878   4.67000008  48.88999939
C    20.59000015   5.12000036  49.22000122
C    21.61000061   5.00000000  48.23999786
C    22.92000008   5.36000013  48.47999954
C    23.22999954   5.92999983  49.73999786
C    22.20999908   6.17000008  50.63000107
C    20.84000015   5.82000017  50.45000076
C    16.80999947   4.97000027  49.45999908
C    16.03999901   5.53999996  50.50000000
C    14.67000008   5.75999975  50.41999817
C    24.65999985   6.34999990  49.98000336
H    25.25776863   5.68106794  50.59911728
H    19.98999977   6.52999973  52.30999756
H    19.02000046   4.36999989  47.88000107
H    21.31999969   4.65000010  47.25000000
H    23.64000130   5.22000027  47.68000031
H    22.27999878   6.78999996  51.52000046
H    14.04000092   6.19999981  51.18000031
H    25.12000084   6.42000008  48.99000168
H    24.64999962   7.36999989  50.38999939
S    13.60000038   4.07000017  47.04999924
C    10.90000057   3.98000002  47.63999939
C    12.15000057   4.41000032  48.02000046
C    12.48000050   4.90000010  49.31999969
C    11.46999931   5.13999987  50.22999573
C    10.14000034   4.90999985  49.80999756
C     9.09000015   5.13000011  50.76000214
C     7.78999996   4.78999996  50.45000076
C     7.50999975   4.19999981  49.19000244
C     8.51000023   3.88000011  48.30999756
C     9.85999966   4.28000021  48.54999924
C    13.92000008   5.09999990  49.43000031
C    14.67000008   4.46000004  48.40999985
C    16.05999947   4.41000032  48.41999817
C     6.07999992   3.86000013  48.82999802
H     5.65079451   4.41081333  47.99304581
H    10.75000000   3.42999983  46.70999908
H    11.75000000   5.42000008  51.25000000
H     9.31999969   5.59000015  51.70999908
H     7.07000017   5.14999962  51.17000198
H     8.22000027   3.17999983  47.52999878
H    16.56999969   4.15999985  47.49000168
H     5.46999979   3.98000002  49.73999786
H     6.05000019   2.82000017  48.48999786
