96

S    17.02999878   5.25000000  57.91999817
C    19.63999939   5.46999979  57.06999969
C    18.39999962   4.92999983  56.83000183
C    17.98999977   4.32999992  55.59999847
C    19.01000023   4.11999989  54.69999695
C    20.30999947   4.65999985  54.88999939
C    21.31000137   4.34999990  53.93000031
C    22.60999870   4.69000006  54.20999908
C    23.02000046   5.27999973  55.43000031
C    22.04000092   5.59999990  56.35000229
C    20.65999985   5.38999987  56.07999802
C    16.54000092   4.21999979  55.52000046
C    15.88000107   4.69999981  56.68000031
C    14.52999973   4.99000025  56.58000183
C    24.44000053   5.69999981  55.70999908
H    24.90078354   5.01945734  56.42598724
H    19.78000069   5.92999983  58.04999924
H    18.88000107   3.51000023  53.80000305
H    20.95000076   3.60000014  53.22000122
H    23.47999954   4.32000017  53.67000198
H    22.27999878   5.78000021  57.38999939
H    14.09000015   5.46999979  57.44999695
H    25.06000137   5.78999996  54.80999756
H    24.56000137   6.71000004  56.11999893
S    13.36999989   3.71000004  53.00000000
C    10.67000008   3.50000000  53.77999878
C    11.95000076   3.89999986  54.05000305
C    12.25999928   4.48000002  55.31999969
C    11.28999901   4.53000021  56.30000305
C     9.94999981   4.18000031  56.00000000
C     8.93999958   4.26000023  57.00000000
C     7.63999987   4.00999975  56.65999985
C     7.28999996   3.54999995  55.35999680
C     8.25000000   3.38000011  54.38000107
C     9.59999943   3.68000007  54.69999695
C    13.69999981   4.61000013  55.52000046
C    14.40000057   4.09999990  54.38999939
C    15.77000046   3.86999989  54.40999985
C     5.89999962   2.96999979  55.22999573
H     5.22418213   3.58179235  54.63243484
H    10.44000053   3.05000019  52.81000137
H    11.68000031   4.67999983  57.30999756
H     9.15000057   4.55999994  58.02000046
H     6.90000010   4.01999998  57.44999695
H     8.10000038   2.98000002  53.37999725
H    16.27000046   3.50000000  53.50999832
H     5.38999987   2.86999989  56.19999695
H     5.93999958   2.00000000  54.72000122
S    17.64999962   5.58000040  51.88000107
C    20.35000038   5.55000019  51.24000168
C    19.05999947   5.29999971  50.84000015
C    18.75000000   5.05999994  49.45999908
C    19.77000046   4.75000000  48.57999802
C    21.09999847   5.05000019  48.95999908
C    22.17000008   4.94000006  48.02000046
C    23.44000053   5.31000042  48.40000153
C    23.71000099   5.69999981  49.73999786
C    22.72999954   5.77000046  50.70999908
C    21.40999985   5.46999979  50.30000305
C    17.30999947   4.98000002  49.29000092
C    16.61999893   5.40999985  50.45000076
C    15.24000072   5.55999994  50.54000092
C    25.10000038   6.15000010  50.08999634
H    25.49803734   5.50319004  50.87185669
H    20.62999916   5.97000027  52.19999695
H    19.63999939   4.02999973  47.77999878
H    21.77000046   4.82999992  47.02000046
H    24.28999901   5.33999968  47.72999573
H    22.78000069   6.11000013  51.75000000
H    14.70999908   5.69000006  51.47999573
H    25.72000122   6.11000013  49.19000244
H    25.00000000   7.20000029  50.40000153
S    14.06000042   4.15000010  47.06999969
C    11.38000011   3.97000027  47.80000305
C    12.64000034   4.46999979  48.06999969
C    13.02000046   5.07000017  49.31000137
C    11.97999954   5.32000017  50.19000244
C    10.72999954   4.67999983  50.07999802
C     9.68999958   4.76000023  51.05999756
C     8.38000011   4.44000006  50.77999878
C     8.06999969   4.00000000  49.47000122
C     9.02999973   3.81000018  48.50000000
C    10.38000011   4.13000011  48.80000305
C    14.45000076   5.28999996  49.40999985
C    15.17000008   4.76999998  48.30999756
C    16.54999924   4.61000013  48.16999817
C     6.63999987   3.61999989  49.12000275
H     6.16199636   4.17648220  48.31381226
H    11.17000008   3.38999987  46.90999985
H    12.20000076   5.93999958  51.05999756
H     9.81999969   5.25000000  52.02000046
H     7.63000011   4.61999989  51.53999710
H     8.73000050   3.58999991  47.48000336
H    17.00000000   4.26999998  47.23999786
H     6.14000034   3.73000002  50.08999634
H     6.71999979   2.53999996  48.92000198
