96

S    16.97999954   5.29999971  57.76000214
C    19.76000023   5.22000027  57.28000259
C    18.46999931   5.03999996  56.83000183
C    18.11000061   4.67000008  55.50000000
C    19.17000008   4.55999994  54.59999847
C    20.52000046   4.72000027  54.95999908
C    21.57999992   4.51999998  54.03999710
C    22.89999962   4.67999983  54.38999939
C    23.16999817   5.23999977  55.66999817
C    22.15999985   5.42999983  56.59000015
C    20.79000092   5.17000008  56.30000305
C    16.69000053   4.59000015  55.20000076
C    15.95999908   5.00000000  56.35000229
C    14.56999969   5.05000019  56.37000275
C    24.53000069   5.75999975  56.04999924
H    25.02173805   5.14711094  56.80541992
H    19.95000076   5.66999960  58.25000000
H    18.86999893   4.32999992  53.57999802
H    21.32999802   4.26999998  53.01000214
H    23.67000198   4.59000015  53.62999725
H    22.44999886   5.73999977  57.60000229
H    14.01999950   5.27999973  57.28000259
H    25.12000084   5.78999996  55.12000275
H    24.37999916   6.80999994  56.32999802
S    13.48000050   3.63000011  52.84999847
C    10.76000023   3.51999998  53.59000397
C    12.02999973   4.00000000  53.81000137
C    12.38000011   4.50000000  55.11000061
C    11.36000061   4.63000011  56.03000259
C    10.01999950   4.23999977  55.79999924
C     8.97000027   4.48999977  56.72999954
C     7.68000031   4.05000019  56.52999878
C     7.40000010   3.35000014  55.33000183
C     8.34999943   3.25999999  54.33000183
C     9.70000076   3.65000010  54.52999878
C    13.81999969   4.63000011  55.27000046
C    14.55999947   4.19000006  54.13999939
C    15.93999958   4.15999985  54.09999847
C     5.97000027   2.92000008  55.06999969
H     5.47936344   3.55285025  54.33049011
H    10.65999985   3.07000017  52.60000229
H    11.59000015   4.96000004  57.04000092
H     9.28999996   5.12000036  57.56000137
H     6.85999966   4.21999979  57.22000122
H     8.01000023   2.89000010  53.36999893
H    16.36000061   3.68999982  53.20999908
H     5.32999992   3.02999997  55.96000290
H     5.92000008   1.88999999  54.72999954
S    17.73999977   5.96000004  51.97999954
C    20.45999908   6.06999969  51.22000122
C    19.17000008   5.64000034  50.98999786
C    18.81999969   5.12000036  49.69999695
C    19.75000000   5.05000019  48.68999863
C    21.11999893   5.38000011  48.88000107
C    22.17000008   5.23999977  47.93000031
C    23.46999931   5.42999983  48.33000183
C    23.75999832   6.05000019  49.56999969
C    22.77000046   6.23000050  50.50000000
C    21.42000008   5.91000032  50.19000244
C    17.38000107   5.15999985  49.47000122
C    16.65999985   5.51000023  50.63999939
C    15.26999950   5.55999994  50.59999847
C    25.20000076   6.35999966  49.93000031
H    25.59158707   5.77617884  50.76301575
H    20.78000069   6.44999981  52.18999863
H    19.36000061   4.90000010  47.69000244
H    21.97999954   4.69999981  47.01000214
H    24.34000015   5.22000027  47.70999908
H    23.12999916   6.53999996  51.47999573
H    14.65000057   5.84999990  51.45000076
H    25.81000137   6.30000019  49.02000046
H    25.22000122   7.40000010  50.28999710
S    14.29999924   4.30999994  46.90999985
C    11.52999973   4.26000023  47.50000000
C    12.81999969   4.59999990  47.84000015
C    13.15999985   5.09000015  49.13999939
C    12.22000027   5.19000006  50.13999939
C    10.85999966   4.94000006  49.80999756
C     9.82999992   5.10999966  50.77999878
C     8.53999996   4.69999981  50.54000092
C     8.26000023   4.09999990  49.27999878
C     9.21000004   3.97000027  48.29999924
C    10.55999947   4.36999989  48.53000259
C    14.59000015   5.22000027  49.41999817
C    15.31000042   4.78999996  48.27999878
C    16.69999886   4.74000025  48.31999969
C     6.86999989   3.51999998  49.09999847
H     6.32280350   4.13115501  48.38224792
H    11.30000019   3.81000018  46.53999710
H    12.41000080   5.27999973  51.20999908
H    10.11999989   5.32999992  51.79999924
H     7.85000038   4.86000013  51.36000061
H     8.97000027   3.56999993  47.31999969
H    17.20999908   4.30999994  47.47000122
H     6.44000006   3.47000003  50.11000061
H     6.86999989   2.48000002  48.75999832
