96

S    17.22999954   5.26999998  58.36000061
C    19.93000031   5.46000004  57.72999573
C    18.65999985   5.13999987  57.30999756
C    18.36000061   4.65999985  56.00000000
C    19.40000153   4.34999990  55.13999939
C    20.71000099   4.63999987  55.56999969
C    21.77999878   4.51000023  54.62999725
C    23.03999901   4.97000027  54.92000198
C    23.36000061   5.50000000  56.19999695
C    22.34000015   5.68000031  57.11000061
C    21.02000046   5.19999981  56.84999847
C    16.92000008   4.46999979  55.83000183
C    16.18999863   4.88999987  56.97000122
C    14.80999947   4.99000025  57.01000214
C    24.67000008   6.24000025  56.33999634
H    25.24213791   5.63210344  57.04086685
H    20.12000084   6.12999964  58.55999756
H    19.27000046   4.09999990  54.09000015
H    21.56999969   4.32000017  53.57999802
H    23.77000046   5.07999992  54.13000107
H    22.43000031   6.34000015  57.97000122
H    14.26000023   5.17000008  57.93000031
H    25.10000038   6.30000019  55.33000183
H    24.51999855   7.26000023  56.70999908
S    13.71000099   3.89999986  53.36000061
C    10.98999977   3.73000002  54.03999710
C    12.28000069   4.02999973  54.40999985
C    12.64999962   4.48999977  55.70999908
C    11.64999962   4.51999998  56.68000031
C    10.31999969   4.21000004  56.31999969
C     9.22000027   4.44000006  57.18999863
C     7.90999985   4.11999989  56.90999985
C     7.55000019   3.63000011  55.63000107
C     8.57999992   3.47000003  54.72999954
C     9.94999981   3.75000000  55.00999832
C    14.09000015   4.63999987  55.86999893
C    14.80999947   4.30999994  54.68999863
C    16.18999863   4.21000004  54.66999817
C     6.15000010   3.17999983  55.27000046
H     5.66555548   3.74281073  54.47209167
H    10.85999966   3.17000008  53.11999893
H    11.79999924   4.78999996  57.71999741
H     9.39999962   5.01999950  58.09000015
H     7.14999962   4.51999998  57.57999802
H     8.31999969   3.17999983  53.70999908
H    16.73999977   3.93000007  53.76999664
H     5.52999973   2.98000002  56.14999771
H     6.30000019   2.17999983  54.85000229
S    13.78000069   1.86000001  50.18000031
C    11.13000011   1.39999998  50.93999863
C    12.46999931   1.25000000  51.20999908
C    12.98999977   0.69999999  52.43000031
C    12.10000038   0.34000003  53.41999817
C    10.71000004   0.38000000  53.15000153
C     9.70000076  -0.03000000  54.06999969
C     8.36000061   0.05000000  53.75000000
C     7.92000008   0.52999997  52.49000168
C     8.85000038   0.87000000  51.52000046
C    10.22999954   0.82000005  51.86999893
C    14.44000053   0.81000000  52.48000336
C    15.01000023   1.56000006  51.40999603
C    16.35000038   1.93000007  51.45000076
C     6.43000031   0.59999996  52.23999786
H     6.04599094  -0.23201966  51.64976120
H    10.77000046   1.79000008  49.99000168
H    12.35999966  -0.03000000  54.40000153
H    10.06000042  -0.56999999  54.93999863
H     7.62000036  -0.20999999  54.48999786
H     8.55000019   1.35000002  50.59999847
H    16.82999992   2.56999993  50.70999908
H     5.88000011   0.76999998  53.16999817
H     6.34000015   1.58999991  51.77000046
S    17.64999962   0.17000002  54.84000397
C    20.26000023   0.82000005  54.23999786
C    18.93000031   0.94999999  53.88999939
C    18.54999924   1.64000010  52.70000076
C    19.47000122   2.28999996  51.90999985
C    20.84000015   2.15000010  52.23999786
C    21.90999985   2.57999992  51.40999603
C    23.22999954   2.47000003  51.79999924
C    23.59999847   1.81999993  53.00000000
C    22.62000084   1.18000007  53.72000122
C    21.25000000   1.41000009  53.40999985
C    17.11000061   1.47000003  52.52999878
C    16.53000069   0.69000000  53.55999756
C    15.19999981   0.31000000  53.54000092
C    25.06000137   1.44999993  53.16999817
H    25.50848007   1.87712228  54.06695557
H    20.53999901   0.17000002  55.06000137
H    19.20999908   2.75999999  50.97000122
H    21.68999863   3.05000019  50.45999908
H    23.97000122   2.71000004  51.04999924
H    22.77000046   0.52999997  54.58000183
H    14.73999977  -0.37000000  54.25000000
H    25.76999855   1.69000006  52.36999893
H    25.12000084   0.35999998  53.13000107
