96

S    17.22999954   5.26999998  58.36000061
C    19.93000031   5.46000004  57.72999573
C    18.65999985   5.13999987  57.30999756
C    18.36000061   4.65999985  56.00000000
C    19.40000153   4.34999990  55.13999939
C    20.71000099   4.63999987  55.56999969
C    21.77999878   4.51000023  54.62999725
C    23.03999901   4.97000027  54.92000198
C    23.36000061   5.50000000  56.19999695
C    22.34000015   5.68000031  57.11000061
C    21.02000046   5.19999981  56.84999847
C    16.92000008   4.46999979  55.83000183
C    16.18999863   4.88999987  56.97000122
C    14.80999947   4.99000025  57.01000214
C    24.67000008   6.24000025  56.33999634
H    25.24213791   5.63210344  57.04086685
H    20.12000084   6.12999964  58.55999756
H    19.27000046   4.09999990  54.09000015
H    21.56999969   4.32000017  53.57999802
H    23.77000046   5.07999992  54.13000107
H    22.43000031   6.34000015  57.97000122
H    14.26000023   5.17000008  57.93000031
H    25.10000038   6.30000019  55.33000183
H    24.51999855   7.26000023  56.70999908
S    13.71000099   3.89999986  53.36000061
C    10.98999977   3.73000002  54.03999710
C    12.28000069   4.02999973  54.40999985
C    12.64999962   4.48999977  55.70999908
C    11.64999962   4.51999998  56.68000031
C    10.31999969   4.21000004  56.31999969
C     9.22000027   4.44000006  57.18999863
C     7.90999985   4.11999989  56.90999985
C     7.55000019   3.63000011  55.63000107
C     8.57999992   3.47000003  54.72999954
C     9.94999981   3.75000000  55.00999832
C    14.09000015   4.63999987  55.86999893
C    14.80999947   4.30999994  54.68999863
C    16.18999863   4.21000004  54.66999817
C     6.15000010   3.17999983  55.27000046
H     5.66555548   3.74281073  54.47209167
H    10.85999966   3.17000008  53.11999893
H    11.79999924   4.78999996  57.71999741
H     9.39999962   5.01999950  58.09000015
H     7.14999962   4.51999998  57.57999802
H     8.31999969   3.17999983  53.70999908
H    16.73999977   3.93000007  53.76999664
H     5.52999973   2.98000002  56.14999771
H     6.30000019   2.17999983  54.85000229
S    17.63000107   5.88000011  52.01000214
C    20.36999893   5.86999989  51.44000244
C    19.09000015   5.59000015  51.04000092
C    18.79999924   5.13000011  49.72000122
C    19.88999939   5.07000017  48.87000275
C    21.21999931   5.42000008  49.22999954
C    22.29000092   5.50000000  48.29000092
C    23.55999947   5.84999990  48.67000198
C    23.85000038   6.14000034  50.02999878
C    22.86000061   6.01000023  50.97000122
C    21.51000023   5.73000002  50.61000061
C    17.36999893   4.96000004  49.52000046
C    16.61000061   5.31000042  50.66999817
C    15.22999954   5.49000025  50.65999985
C    25.26000023   6.48000002  50.47999954
H    25.59250069   5.89281797  51.33601379
H    20.48999977   6.12999964  52.49000168
H    19.73999977   4.76000023  47.84000015
H    22.18000031   5.22000027  47.25000000
H    24.36000061   5.73000002  47.95000076
H    23.05000114   6.30000019  52.00000000
H    14.70999908   5.88999987  51.52999878
H    25.97999954   6.38000011  49.65999985
H    25.36999893   7.53999996  50.72000122
S    14.14000034   4.32999992  47.01000214
C    11.43000031   4.33999968  47.60000229
C    12.69999981   4.74000025  47.97000122
C    13.07999992   5.18000031  49.27999878
C    12.05999947   5.14999962  50.20999908
C    10.72000027   4.78999996  49.92000198
C     9.65999985   4.80999994  50.87999725
C     8.43999958   4.28000021  50.52000046
C     8.15999985   4.07000017  49.15000153
C     9.07999992   4.17000008  48.11999893
C    10.39000034   4.48000002  48.55999756
C    14.52000046   5.23999977  49.47999954
C    15.22999954   4.79999971  48.33000183
C    16.61000061   4.65999985  48.37999725
C     6.78999996   3.51000023  48.82999802
H     6.24163580   4.15806675  48.14632797
H    11.21000099   4.09999990  46.56999969
H    12.28999996   5.29999971  51.25999832
H     9.89999962   5.18000031  51.86999893
H     7.82000017   3.89999986  51.32999802
H     9.04999924   3.89999986  47.06999969
H    17.12000084   4.42000008  47.44999695
H     6.25999975   3.33999991  49.77000427
H     7.03000021   2.54999995  48.36999893
