96

S    17.40999985   5.49000025  57.80000305
C    20.13000107   5.63000011  57.04999924
C    18.82999992   5.31000042  56.75000000
C    18.42000008   4.90000010  55.45000076
C    19.42000008   4.73000002  54.51000214
C    20.78000069   4.98000002  54.80999756
C    21.84999847   4.73000002  53.90999603
C    23.12999916   5.12000036  54.22000122
C    23.51000023   5.64000034  55.48999786
C    22.50000000   5.84000015  56.40999603
C    21.14999962   5.56999969  56.06999969
C    16.97000122   4.81999969  55.31000137
C    16.27000046   5.01999950  56.52000046
C    14.88000011   5.00000000  56.55000305
C    24.96000099   5.78999996  55.86999893
H    25.33551788   5.03187895  56.55727005
H    20.30999947   5.93999958  58.08000183
H    19.22000122   4.23000002  53.55999756
H    21.67000008   4.34999990  52.90999985
H    23.95999908   4.99000025  53.52000427
H    22.70000076   6.06999969  57.45999908
H    14.37000084   5.27999973  57.48000336
H    25.55000114   5.73999977  54.94999695
H    25.10000038   6.77999973  56.31000137
S    13.78000069   3.61999989  53.04000092
C    11.07999992   3.44000006  53.79000092
C    12.35999966   3.82999992  54.08000183
C    12.71000004   4.46000004  55.31999969
C    11.72999954   4.67000008  56.26999664
C    10.43000031   4.15999985  56.00999832
C     9.31999969   4.48999977  56.84000015
C     8.00000000   4.19999981  56.56999969
C     7.72000027   3.50000000  55.37000275
C     8.73000050   3.14000010  54.51000214
C    10.07999992   3.49000001  54.79000092
C    14.15999985   4.63999987  55.40999985
C    14.89999962   4.25000000  54.27000046
C    16.28000069   4.33999968  54.19000244
C     6.28999996   3.12000012  55.05000305
H     5.85633278   3.69585323  54.23242950
H    10.65000057   2.86999989  52.95999908
H    12.02999973   5.00000000  57.25999832
H     9.52000046   5.14999962  57.67000198
H     7.27999973   4.61999989  57.25999832
H     8.59000015   2.56000018  53.60000229
H    16.81999969   3.89999986  53.34999847
H     5.71000004   3.32999992  55.96000290
H     6.19999981   2.04999995  54.82999802
S    14.21000004   1.28999996  49.97000122
C    11.52999973   1.01999998  50.76000214
C    12.86999893   0.76999998  51.00999832
C    13.34000015   0.35999998  52.29000092
C    12.38999939  -0.12000000  53.18000031
C    11.00000000  -0.08000001  52.93000031
C    10.00000000  -0.50000000  53.85000229
C     8.65999985  -0.38000000  53.55999756
C     8.23000050   0.28000000  52.36999893
C     9.19999981   0.67000002  51.46999741
C    10.59000015   0.55000001  51.70999908
C    14.75000000   0.64000005  52.45999908
C    15.39000034   1.13000000  51.29000092
C    16.72000122   1.50999999  51.27999878
C     6.76999998   0.63000000  52.19999695
H     6.38631678   0.15394810  51.29763412
H    11.19999981   1.54999995  49.86999893
H    12.71000004  -0.34999999  54.20000076
H    10.26999950  -0.92000002  54.81999969
H     8.05999947  -0.75000000  54.38000107
H     8.85000038   1.13999999  50.54999924
H    17.14999962   1.94000006  50.38000107
H     6.24000025   0.23000000  53.06999969
H     6.60000038   1.71000004  52.22999954
S    18.04000092   0.43000001  54.79000092
C    20.72000122   0.87000000  54.01000214
C    19.37999916   1.08000004  53.81999969
C    18.89999962   1.63000000  52.58999634
C    19.80999947   2.03999996  51.63999939
C    21.21000099   2.01999998  51.86000061
C    22.19000053   2.48000002  50.91999817
C    23.52999878   2.39999986  51.19999695
C    23.95999908   1.77999997  52.39999771
C    23.05000114   1.30999994  53.33000183
C    21.64999962   1.36000013  53.06000137
C    17.45000076   1.49000001  52.48000336
C    16.80999947   0.87000000  53.57999802
C    15.52000046   0.38000000  53.61000061
C    25.39999962   1.87999988  52.84999847
H    25.64979553   1.29476643  53.73498535
H    21.09000015   0.34000003  54.88999939
H    19.48999977   2.28999996  50.63000107
H    21.84999847   2.86000013  49.95999908
H    24.28999901   2.82000017  50.54999924
H    23.38999939   0.96000004  54.29000092
H    15.14999962  -0.02000000  54.54999924
H    25.65999985   2.93000007  53.04000092
H    26.05999947   1.53999996  52.04999924
