96

S    17.35000038   5.60999966  58.02999878
C    20.03999901   5.66999960  57.09999847
C    18.71999931   5.32000017  56.93999863
C    18.32999992   4.73000002  55.68999863
C    19.30999947   4.46999979  54.73999786
C    20.65000153   4.88999987  54.84000397
C    21.67000008   4.69000006  53.87000275
C    22.96999931   4.99000025  54.20999908
C    23.29000092   5.77000046  55.34999847
C    22.32000160   6.05999994  56.27999878
C    21.02000046   5.52999973  56.07999802
C    16.88999939   4.53000021  55.66999817
C    16.21000099   5.09000015  56.77999878
C    14.82999992   5.25000000  56.73999786
C    24.75000000   6.01999998  55.65999985
H    25.07160759   5.26243782  56.37467957
H    20.28000069   6.24000025  58.00000000
H    19.00000000   3.81999993  53.92000198
H    21.27000046   4.36999989  52.90999985
H    23.78999901   4.67000008  53.56999969
H    22.52000046   6.52999973  57.23999786
H    14.25000000   5.69000006  57.54000092
H    25.28000069   5.97000027  54.69999695
H    24.89999962   7.05999947  55.97000122
S    13.81999969   3.88000011  53.04000092
C    11.14999962   3.94000006  53.66000366
C    12.42000008   4.33999968  54.02000046
C    12.74000072   4.86000013  55.31999969
C    11.64999962   5.05000019  56.14999771
C    10.31000042   4.76000023  55.79000092
C     9.22999954   4.97000027  56.69000244
C     7.90000010   4.90999985  56.33999634
C     7.64999962   4.21999979  55.13000107
C     8.65999985   3.96000004  54.23999786
C    10.03999901   4.21999979  54.48999786
C    14.17000008   4.84000015  55.58000183
C    14.82999992   4.34999990  54.41999817
C    16.21000099   4.15000010  54.51000214
C     6.23000050   3.79999995  54.80999756
H     5.76194811   4.38151884  54.01572800
H    11.11999989   3.42000008  52.70999908
H    11.84000015   5.35000038  57.16999817
H     9.46000004   5.49000025  57.61000061
H     7.09000015   5.17000008  57.02000046
H     8.28999996   3.45999980  53.34000015
H    16.72000122   3.89999986  53.57999802
H     5.59000015   4.05999994  55.65999985
H     6.23000050   2.71000004  54.66999817
S    14.09999943   1.94000006  50.02999878
C    11.40999985   1.62000000  50.84000015
C    12.75000000   1.33000004  51.00999832
C    13.15999985   0.59000003  52.16999817
C    12.20000076   0.19999999  53.08000183
C    10.81999969   0.41000003  52.85999680
C     9.78999996  -0.04000000  53.73000336
C     8.46000004   0.25000000  53.54999924
C     8.05000019   0.92000002  52.36999893
C     9.00000000   1.38999999  51.47999573
C    10.39000034   1.16999996  51.72000122
C    14.59000015   0.69999999  52.41000366
C    15.18000031   1.38000000  51.31999969
C    16.47999954   1.85000002  51.38000107
C     6.60000038   1.10000002  51.97999954
H     6.22224092   0.26607925  51.38841248
H    11.10999966   2.11999989  49.93000031
H    12.48999977  -0.34000003  53.96999741
H    10.06999969  -0.45000002  54.69999695
H     7.73999977  -0.17000002  54.25000000
H     8.76000023   1.93000007  50.56999969
H    16.88999939   2.44000006  50.56999969
H     5.96000004   1.15999997  52.87000275
H     6.48000002   2.06999993  51.49000168
S    17.81999969   0.46000001  54.89999771
C    20.48999977   0.87000000  54.15000153
C    19.14999962   1.07000005  53.89999771
C    18.68000031   1.52999997  52.63999939
C    19.62000084   1.94999993  51.70999908
C    21.00000000   1.94000006  51.98999786
C    21.94999886   2.56999993  51.13999939
C    23.29000092   2.61999989  51.40999603
C    23.77000046   2.05999994  52.62000275
C    22.85000038   1.48000002  53.47000122
C    21.45000076   1.34000003  53.22000122
C    17.22999954   1.44999993  52.50000000
C    16.62999916   0.83999997  53.62999725
C    15.31000042   0.41000003  53.57999802
C    25.23999977   2.16000009  52.94000244
H    25.58242989   1.58928466  53.80320740
H    20.90999985   0.28999999  54.97000122
H    19.27000046   2.36000013  50.77000046
H    21.57999992   3.09999990  50.26000214
H    23.92000008   3.05999994  50.63999939
H    23.18000031   1.10000002  54.43000031
H    14.80000019   0.08000001  54.47999954
H    25.48999977   3.22000003  53.11000061
H    25.79000092   1.81999993  52.04999924
