96

S    17.01000023   5.55000019  57.77000046
C    19.75000000   5.50000000  57.16999817
C    18.45000076   5.23999977  56.79000092
C    18.04999924   4.79999971  55.48999786
C    19.07999992   4.67000008  54.56999969
C    20.43000031   4.88999987  54.92000198
C    21.55999947   4.69000006  54.06999969
C    22.86000061   5.01999950  54.40000153
C    23.09999847   5.61999989  55.65999985
C    22.10000038   5.79999971  56.59000015
C    20.79000092   5.40999985  56.20999908
C    16.61000061   4.67000008  55.33000183
C    15.90000057   5.19000006  56.43000031
C    14.52000046   5.36000013  56.40999603
C    24.48999786   6.06999969  56.04000092
H    25.07449341   5.37145710  56.63875198
H    19.97999954   5.84000015  58.16999817
H    18.82999992   4.39000034  53.54999924
H    21.40000153   4.44999981  53.02999878
H    23.62999916   4.74000025  53.68000031
H    22.25000000   6.34000015  57.51999664
H    13.96999931   5.51999998  57.34000397
H    25.06999969   6.25000000  55.13000107
H    24.48999786   7.07000017  56.51000214
S    13.35999966   3.93000007  52.98999786
C    10.65000057   4.03999996  53.68999863
C    11.95000076   4.34999990  53.99000168
C    12.34000015   4.98000002  55.20999908
C    11.40999985   5.10999966  56.23000336
C    10.08999920   4.67999983  55.96000290
C     9.10000038   4.78999996  56.97000122
C     7.81000042   4.39000034  56.72999954
C     7.36999989   3.78999996  55.52000046
C     8.30000019   3.75999975  54.51000214
C     9.63999939   4.21999979  54.66999817
C    13.78000069   5.19999981  55.22999573
C    14.50000000   4.67999983  54.13000107
C    15.86999989   4.48000002  54.15000153
C     5.91000032   3.52999973  55.19000244
H     5.44831705   4.13373947  54.40869141
H    10.32999992   3.53999996  52.77999878
H    11.84999943   5.44000053  57.16999817
H     9.47000027   5.17000008  57.93000031
H     7.09000015   4.78999996  57.43000031
H     8.03999996   3.28999996  53.55999756
H    16.43000031   4.42000008  53.22000122
H     5.22000027   3.60000014  56.04000092
H     6.00000000   2.47000003  54.91000366
S    14.17000008   1.85000002  50.24000168
C    11.52999973   1.29999995  51.00000000
C    12.86999893   1.22000003  51.26999664
C    13.43000031   0.64999998  52.45999908
C    12.51999950   0.13000000  53.36999893
C    11.13000011   0.16000001  53.09999847
C    10.17000008  -0.25999999  54.06999969
C     8.82000065  -0.13000000  53.81999969
C     8.27999973   0.43000001  52.63000107
C     9.19000053   1.00999999  51.77000046
C    10.59000015   0.78000003  51.93000031
C    14.84000015   0.92000002  52.64999771
C    15.38000011   1.56000006  51.50000000
C    16.69000053   2.00000000  51.52999878
C     6.80999994   0.71999997  52.44999695
H     6.40482044   0.30771196  51.52590179
H    11.13999939   1.77999997  50.11000061
H    12.84000015  -0.28999999  54.31000137
H    10.52999973  -0.57999998  55.05000305
H     8.11999989  -0.45000002  54.58000183
H     8.94999981   1.56000006  50.86999893
H    17.11000061   2.53999996  50.68999863
H     6.32999992   0.29999998  53.34000015
H     6.54999971   1.79000008  52.44999695
S    18.22999954   0.39999998  54.81999969
C    20.88000107   0.88999999  54.08000183
C    19.54000092   0.97999996  53.77999878
C    19.00000000   1.64000010  52.63000107
C    19.88999939   2.19000006  51.72000122
C    21.28000069   2.09000015  51.93999863
C    22.20999908   2.63999987  51.00000000
C    23.55999947   2.63000011  51.24000168
C    23.98999977   2.14000010  52.50999832
C    23.15999985   1.58000004  53.44999695
C    21.77000046   1.49000001  53.15000153
C    17.54999924   1.54999995  52.55000305
C    16.97000122   0.92000002  53.68000031
C    15.62000084   0.61000001  53.76999664
C    25.46999931   2.23000002  52.81999969
H    25.75432968   1.76796365  53.76539993
H    21.35000038   0.45000002  54.94999695
H    19.54000092   2.73999977  50.84999847
H    21.78999901   3.00999999  50.06999969
H    24.21999931   3.10999990  50.52999878
H    23.46999931   1.11000001  54.38000107
H    15.25000000   0.07000000  54.64000320
H    25.73999786   3.28999996  52.78999710
H    26.04999924   1.72000003  52.04000092
