96

S    17.38000107   5.29999971  57.68000031
C    20.10000038   5.28999996  56.93999863
C    18.79999924   4.94000006  56.68000031
C    18.38999939   4.51999998  55.37000275
C    19.31999969   4.41000032  54.34999847
C    20.65999985   4.77999973  54.59999847
C    21.73000145   4.48999977  53.70999908
C    23.02000046   4.84000015  54.02000046
C    23.40999985   5.49000025  55.21999741
C    22.39999962   5.68000031  56.11999893
C    21.04999924   5.26999998  55.90000153
C    16.95000076   4.53000021  55.14999771
C    16.28999901   5.01999950  56.31000137
C    14.91000080   5.21000004  56.36000061
C    24.82999992   5.92000008  55.51000214
H    25.28891754   5.20691490  56.19484329
H    20.29999924   5.75999975  57.90999985
H    19.14999962   3.84999990  53.43999863
H    21.45999908   4.23000002  52.69000244
H    23.81999969   4.63000011  53.30999756
H    22.67999840   6.12999964  57.06999969
H    14.40000057   5.56999969  57.23999786
H    25.26000023   6.05999994  54.51000214
H    24.80999947   6.94000006  55.90999985
S    13.60999966   3.68999982  52.93000031
C    10.93000031   3.77999997  53.75999832
C    12.23999977   4.11999989  53.96999741
C    12.69999981   4.77999973  55.14999771
C    11.69999981   5.18000031  56.03000259
C    10.34999943   4.76999998  55.90000153
C     9.35999966   4.88000011  56.90999985
C     8.05000019   4.51000023  56.70000076
C     7.67000008   3.73000002  55.58000183
C     8.60999966   3.53999996  54.59999847
C     9.94000053   4.05000019  54.72999954
C    14.14999962   4.78999996  55.26000214
C    14.80000019   4.26000023  54.10999680
C    16.18999863   4.19000006  54.02999878
C     6.24000025   3.25000000  55.40999985
H     5.64069700   3.80649543  54.68941116
H    10.59999943   3.31999993  52.83000183
H    11.96000004   5.72000027  56.93999863
H     9.64999962   5.29999971  57.88000107
H     7.30000019   4.76999998  57.43999863
H     8.39999962   3.12999988  53.61000061
H    16.61000061   3.84000015  53.09999847
H     5.73999977   3.32999992  56.38000107
H     6.14000034   2.21000004  55.08999634
S    17.85000038   5.89999962  51.83000183
C    20.53999901   5.98000002  50.97000122
C    19.22999954   5.61999989  50.75000000
C    18.77000046   5.07999992  49.50000000
C    19.70999908   4.85000038  48.50999832
C    21.07999992   5.12000036  48.75999832
C    22.03000069   5.05000019  47.70000076
C    23.31999969   5.45000029  47.95999908
C    23.78000069   5.95000029  49.20000076
C    22.86000061   6.12999964  50.20999908
C    21.52000046   5.69999981  50.00000000
C    17.32999992   4.90999985  49.50000000
C    16.63999939   5.50000000  50.59000015
C    15.26000023   5.64000034  50.63000107
C    25.26000023   6.21000004  49.38999939
H    25.58717537   5.64811277  50.26483536
H    20.79999924   6.54999971  51.86000061
H    19.42000008   4.88000011  47.47000122
H    21.70000076   4.84000015  46.68000031
H    23.90999985   5.21000004  47.08000183
H    23.25000000   6.44999981  51.17000198
H    14.80000019   6.01999998  51.53999710
H    25.78000069   6.10000038  48.43999863
H    25.31999969   7.23999977  49.77000427
S    14.17000008   4.07000017  47.16999817
C    11.38000011   4.07000017  47.84000015
C    12.69000053   4.38000011  48.11000061
C    13.07000065   4.96000004  49.36000061
C    12.07999992   5.22000027  50.30000305
C    10.72999954   4.84000015  50.13000107
C     9.68999958   4.97000027  51.09000397
C     8.42000008   4.50000000  50.86000061
C     8.07999992   4.05000019  49.54999924
C     9.06000042   3.89999986  48.59000397
C    10.42000008   4.19000006  48.88000107
C    14.48999977   5.19000006  49.54999924
C    15.22999954   4.69000006  48.44999695
C    16.61000061   4.48999977  48.37999725
C     6.63000011   3.75000000  49.26000214
H     6.20378542   4.39642477  48.49281693
H    11.10999966   3.58000016  46.90999985
H    12.41000080   5.73000002  51.19999695
H    10.01000023   5.35000038  52.05999756
H     7.60999966   4.59000015  51.56999969
H     8.65999985   3.51999998  47.64999771
H    17.13000107   4.32000017  47.43999863
H     6.05999994   3.93000007  50.17000198
H     6.44999981   2.71000004  48.94000244
