96

S    17.20000076   5.38000011  57.90000153
C    19.92000008   5.59999990  57.12999725
C    18.61999893   5.23999977  56.84999847
C    18.17000008   4.65000010  55.61999893
C    19.12999916   4.51999998  54.62999725
C    20.46999931   4.94000006  54.86000061
C    21.50000000   4.71000004  53.89999771
C    22.84000015   4.85000038  54.15999985
C    23.23999786   5.32999992  55.44000244
C    22.29999924   5.64000034  56.38000107
C    20.90999985   5.42000008  56.13999939
C    16.72999954   4.53999996  55.47000122
C    16.03000069   4.86999989  56.65999985
C    14.65000057   4.99000025  56.77000046
C    24.68000031   5.65000010  55.79000092
H    25.12817192   5.16625786  56.65789032
H    20.15000153   5.86999989  58.15999985
H    18.89999962   4.00000000  53.70999908
H    21.18999863   4.19999981  52.98999786
H    23.52999878   4.65999985  53.34000015
H    22.56999969   5.92999983  57.38999939
H    14.21000004   5.35000038  57.69000244
H    25.32999992   5.42000008  54.93999863
H    24.72999954   6.75000000  55.84999847
S    13.47000027   3.95000005  53.11000061
C    10.73999977   4.01999998  53.88999939
C    12.07999992   4.19000006  54.18000031
C    12.43999958   4.61000013  55.50000000
C    11.49000072   4.94999981  56.45000076
C    10.11000061   4.74000025  56.20999908
C     9.09000015   4.81999969  57.21000290
C     7.83999968   4.33999968  56.93000031
C     7.50999975   3.81999993  55.63999939
C     8.45000076   3.79999995  54.62999725
C     9.77999973   4.21999979  54.92000198
C    13.88000011   4.63999987  55.65000153
C    14.56999969   4.21999979  54.47999954
C    15.95000076   4.11000013  54.38999939
C     6.12999964   3.26999998  55.38000107
H     5.59583473   3.84689832  54.62504578
H    10.39000034   3.58000016  52.95999908
H    11.71000004   5.13999987  57.50000000
H     9.30999947   5.07999992  58.23999786
H     7.11000013   4.33999968  57.74000168
H     8.25000000   3.45000005  53.61999893
H    16.46999931   3.93000007  53.46000290
H     5.51999998   3.24000001  56.29000092
H     6.21999979   2.23000002  55.06000137
S    13.90999985   2.16000009  50.13999939
C    11.21999931   1.59999990  50.70000076
C    12.55000019   1.39999998  50.97999954
C    13.01000023   0.61000001  52.09000015
C    12.11999989  -0.02000000  52.94000244
C    10.75000000   0.17999999  52.63000107
C     9.80000019  -0.35999998  53.53000259
C     8.45000076  -0.31000000  53.29999924
C     7.99000025   0.56000000  52.28000259
C     8.85999966   1.19000006  51.42000198
C    10.26000023   0.93999994  51.51000214
C    14.46000004   0.64999998  52.27000427
C    15.05000019   1.54999995  51.35000229
C    16.38000107   1.94999993  51.46999741
C     6.52999973   0.96000004  52.18000031
H     6.06748009   0.49036458  51.31188965
H    10.95999908   2.25999999  49.87999725
H    12.48999977  -0.46000001  53.86000061
H    10.15999985  -0.85000002  54.43000031
H     7.75000000  -0.79000002  53.96999741
H     8.47999954   1.79000008  50.59999847
H    16.79999924   2.48000002  50.61999893
H     6.01999998   0.64999998  53.09999847
H     6.43000031   2.04999995  52.12999725
S    17.75000000   0.02000000  54.66999817
C    20.43999863   0.48999998  54.02000046
C    19.11000061   0.71999997  53.75999832
C    18.60000038   1.49000001  52.65999603
C    19.57999992   1.82999992  51.73999786
C    20.96999931   1.71000004  51.98999786
C    21.91999817   2.33999991  51.12999725
C    23.23999786   2.34999990  51.51000214
C    23.71000099   1.75000000  52.70999908
C    22.79999924   1.04999995  53.47000122
C    21.42999840   0.93000001  53.11000061
C    17.14999962   1.50000000  52.55000305
C    16.54999924   0.68000007  53.54000092
C    15.24000072   0.27000001  53.36999893
C    25.17999840   1.87999988  53.02000046
H    25.46312904   1.64641893  54.04634094
H    20.78000069  -0.05000000  54.89999771
H    19.29999924   2.20000005  50.76000214
H    21.60000038   2.96000004  50.28999710
H    23.95000076   2.94000006  50.93999863
H    23.19999886   0.64999998  54.40000153
H    14.78999996  -0.17000002  54.26000214
H    25.50000000   2.89999986  52.77000046
H    25.71000099   1.29999995  52.25999832
