96

S    17.35999870   5.69000006  57.84999847
C    20.00999832   5.73999977  57.18999863
C    18.77000046   5.23000002  56.86999893
C    18.36000061   4.75000000  55.59000015
C    19.38999939   4.57999992  54.68000031
C    20.72000122   4.97000027  54.97000122
C    21.65999985   4.77999973  53.90999603
C    22.95000076   5.15999985  54.19000244
C    23.32999992   5.80999947  55.38999939
C    22.39999962   5.95000029  56.38999939
C    21.04999924   5.52999973  56.25000000
C    16.92000008   4.80999994  55.41999817
C    16.23999977   5.44000053  56.49000168
C    14.85999966   5.47999954  56.59999847
C    24.79999924   6.02999973  55.68999863
H    25.07003212   5.51835728  56.61379623
H    20.13999939   6.15000010  58.18000031
H    19.18000031   4.18000031  53.68999863
H    21.28999901   4.30000019  53.01000214
H    23.77000046   4.90000010  53.50999832
H    22.65000153   6.44999981  57.32999802
H    14.45000076   5.86000013  57.52999878
H    25.52999878   5.60999966  54.99000168
H    25.00999832   7.09999990  55.72999954
S    13.69999981   3.91000009  53.16999817
C    11.00000000   3.86000013  53.80000305
C    12.28000069   4.21000004  54.18000031
C    12.65999985   4.85000038  55.40999985
C    11.64000034   5.14999962  56.29000092
C    10.32999992   4.72000027  55.96000290
C     9.22999954   4.81999969  56.84999847
C     7.92999983   4.41000032  56.65999985
C     7.60999966   3.75000000  55.44000244
C     8.64000034   3.54999995  54.54000092
C     9.96999931   4.00000000  54.75999832
C    14.09999943   4.98000002  55.54000092
C    14.81999969   4.42999983  54.45000076
C    16.18999863   4.26999998  54.34999847
C     6.17999983   3.38000011  55.15999603
H     5.72467279   3.97761703  54.37029266
H    10.93999958   3.47000003  52.78999710
H    11.89000034   5.46000004  57.29999924
H     9.42000008   5.26000023  57.83000183
H     7.11999989   4.57999992  57.35000229
H     8.38000011   3.22000003  53.54000092
H    16.73999977   3.75000000  53.55999756
H     5.58000040   3.63999987  56.04000092
H     6.05000019   2.29999995  55.04000092
S    14.15999985   2.00999999  50.17000198
C    11.52999973   1.53999996  50.86000061
C    12.84999943   1.31999993  51.16000366
C    13.31999969   0.68000007  52.35000229
C    12.38000011   0.25999999  53.27000046
C    11.00000000   0.37000000  52.97999954
C    10.06000042  -0.20999999  53.88000107
C     8.71000004  -0.08000001  53.62999725
C     8.26000023   0.59999996  52.47000122
C     9.18000031   1.00999999  51.52999878
C    10.57999992   1.02999997  51.77999878
C    14.77000046   0.82000005  52.47000122
C    15.36000061   1.49000001  51.37000275
C    16.72000122   1.72999990  51.29000092
C     6.84000015   1.08000004  52.32999802
H     6.30751324   0.60431182  51.50642014
H    11.35000038   1.92000008  49.85000229
H    12.81999969  -0.08000001  54.20999908
H    10.47999954  -0.75000000  54.72000122
H     8.01000023  -0.50000000  54.34000015
H     8.82999992   1.52999997  50.63999939
H    17.14999962   2.21000004  50.40999985
H     6.37000036   1.04999995  53.33000183
H     6.98999977   2.13000011  52.09999847
S    17.98999977   0.55000001  54.89999771
C    20.66999817   0.79000002  54.16999817
C    19.34999847   1.03999996  53.87000275
C    18.89000130   1.58000004  52.62000275
C    19.80999947   2.06999993  51.72000122
C    21.18999863   1.87999988  51.97000122
C    22.19000053   2.34999990  51.06999969
C    23.51000023   2.09000015  51.31000137
C    23.92999840   1.44999993  52.50999832
C    22.96999931   0.97000003  53.36999893
C    21.57999992   1.19999993  53.16999817
C    17.45000076   1.47000003  52.44999695
C    16.84000015   0.82999998  53.56999969
C    15.50000000   0.46000001  53.61000061
C    25.42000008   1.41000009  52.75000000
H    25.61165810   1.36031091  53.82186508
H    20.93000031   0.29999998  55.11000061
H    19.62000084   2.52999997  50.75000000
H    21.78999901   2.75999999  50.13999939
H    24.27000046   2.50999975  50.65999985
H    23.25000000   0.39999998  54.26000214
H    15.03999901  -0.16000001  54.36000061
H    25.95000076   2.27999997  52.32999802
H    25.88999939   0.55000001  52.25999832
