96

S    17.15999985   5.14999962  58.08000183
C    19.79999924   5.59999990  57.35000229
C    18.56999969   5.05999994  57.02000046
C    18.27000046   4.53000021  55.72999954
C    19.27000046   4.59000015  54.78000259
C    20.59999847   5.00000000  55.07999802
C    21.64999962   4.94000006  54.12000275
C    22.89999962   5.32999992  54.52000046
C    23.22999954   5.78000021  55.83000183
C    22.17000008   5.96000004  56.68000031
C    20.85000038   5.47999954  56.40999603
C    16.84000015   4.28999996  55.58000183
C    16.10999870   4.71000004  56.70999908
C    14.73000050   4.88000011  56.73999786
C    24.68000031   6.07999992  56.14999771
H    25.09866714   5.26395512  56.73897171
H    20.00000000   6.11999989  58.27999878
H    19.06999969   4.17000008  53.80000305
H    21.38999939   4.72000027  53.09000015
H    23.64999962   5.17000008  53.75999832
H    22.32000160   6.42000008  57.65999603
H    14.15999985   5.26000023  57.58999634
H    25.29000092   6.28999996  55.27000046
H    24.68000031   7.00000000  56.75000000
S    13.60999966   3.63000011  53.16999817
C    10.93999958   3.70000005  53.72000122
C    12.20000076   4.05000019  54.15000153
C    12.53000069   4.57999992  55.44000244
C    11.50000000   4.73000002  56.35000229
C    10.17000008   4.42000008  55.93999863
C     9.06999969   4.51999998  56.84000015
C     7.81000042   4.03999996  56.56999969
C     7.59999990   3.35999990  55.34999847
C     8.56000042   3.42999983  54.36999893
C     9.86999989   3.94000006  54.61999893
C    13.97999954   4.56999969  55.59999847
C    14.70999908   4.21000004  54.43999863
C    16.09000015   4.11000013  54.40000153
C     6.28999996   2.64999986  55.08999634
H     5.65637970   3.30497813  54.49197388
H    10.62000084   3.17999983  52.81999969
H    11.82000065   5.00999975  57.34000397
H     9.23999977   4.98000002  57.80000305
H     7.13999987   4.19000006  57.42000198
H     8.38999939   2.89999986  53.43000031
H    16.53000069   4.03999996  53.41999817
H     6.01999998   2.29999995  56.10000229
H     6.42000008   1.65999997  54.64000320
S    17.78000069   5.77000046  52.00000000
C    20.43000031   6.12999964  51.17000198
C    19.17000008   5.65999985  50.90000153
C    18.81000137   5.05999994  49.65000153
C    19.75000000   4.94000006  48.62999725
C    21.05999947   5.42000008  48.88000107
C    22.11999893   5.29999971  47.94000244
C    23.43000031   5.61999989  48.20999908
C    23.74000168   6.24000025  49.43999863
C    22.72999954   6.50000000  50.34000015
C    21.40999985   5.98000002  50.15999603
C    17.38000107   4.81999969  49.50000000
C    16.72000122   5.14999962  50.70999908
C    15.34000015   5.22000027  50.80999756
C    25.15000153   6.57999992  49.87999725
H    25.65614319   5.98831320  50.64277267
H    20.68000031   6.50000000  52.15999985
H    19.55999947   4.56999969  47.63000107
H    22.09000015   5.00000000  46.90000153
H    24.13999939   5.42000008  47.41000366
H    23.05000114   7.02000046  51.24000168
H    14.80000019   5.47999954  51.72000122
H    25.73999786   6.71000004  48.96999741
H    25.20000076   7.62000036  50.25000000
S    14.18000031   4.13000011  47.15999985
C    11.52999973   3.91999984  47.85999680
C    12.79000092   4.28999996  48.26000214
C    13.17999935   4.92000008  49.48999786
C    12.13999939   5.23999977  50.34000015
C    10.80000019   4.92000008  50.00000000
C     9.71000004   5.09999990  50.90000153
C     8.47999954   4.59000015  50.56999969
C     8.10999966   4.18000031  49.27000046
C     9.13000011   4.13000011  48.34999847
C    10.47999954   4.35999966  48.70999908
C    14.63000107   4.97000027  49.62999725
C    15.31000042   4.51000023  48.47000122
C    16.68000031   4.36999989  48.37999725
C     6.71000004   3.63999987  49.02000046
H     6.09191036   4.21546268  48.33086395
H    11.39999962   3.50000000  46.86999893
H    12.32999992   5.73000002  51.29000092
H     9.92999935   5.38000011  51.93000031
H     7.79999971   4.53000021  51.42000198
H     9.02000046   3.75999975  47.32999802
H    17.18000031   4.09000015  47.44999695
H     6.15999985   3.47000003  49.94999695
H     6.83000040   2.66000009  48.54999924
