96

S    17.47999954   5.38999987  57.74000168
C    20.19000053   5.32000017  57.02999878
C    18.89000130   4.97000027  56.75000000
C    18.48999977   4.46999979  55.45999908
C    19.47000122   4.23000002  54.52999878
C    20.81999969   4.61999989  54.73999786
C    21.87000084   4.51000023  53.77999878
C    23.18000031   4.76999998  54.09999847
C    23.52999878   5.23999977  55.38999939
C    22.53000069   5.50000000  56.30000305
C    21.18000031   5.13000011  56.03000259
C    17.04000092   4.44999981  55.30000305
C    16.36000061   4.92999983  56.44000244
C    14.98000050   5.12000036  56.50000000
C    24.96000099   5.58000040  55.72999954
H    25.30042839   4.89914083  56.51015091
H    20.45999908   5.75999975  57.97999954
H    19.22000122   3.74000025  53.59000397
H    21.55999947   4.30000019  52.76000214
H    23.85000038   4.77999973  53.23999786
H    22.70999908   5.96000004  57.27000427
H    14.56999969   5.52999973  57.41000366
H    25.63999939   5.45000029  54.87999725
H    25.02000046   6.52999973  56.25999832
S    13.83999920   3.54999995  52.98999786
C    11.14999962   3.73000002  53.61999893
C    12.43999958   3.98999977  54.00000000
C    12.76000023   4.61000013  55.25000000
C    11.78999996   4.82999992  56.22000122
C    10.46000004   4.55000019  55.86000061
C     9.40999985   4.63999987  56.81999969
C     8.15999985   4.09999990  56.60999680
C     7.82999992   3.56999993  55.34000015
C     8.78000069   3.58999991  54.34999847
C    10.13000011   4.00999975  54.55999756
C    14.19999981   4.76999998  55.38999939
C    14.86999989   4.21000004  54.27000046
C    16.25000000   4.03999996  54.22000122
C     6.39999962   3.07999992  55.19000244
H     5.87421227   3.76920795  54.52921677
H    10.93000031   3.12000012  52.74000168
H    12.00000000   5.13000011  57.23999786
H     9.59999943   5.00999975  57.81999969
H     7.46000004   4.03999996  57.43000031
H     8.47999954   3.33999991  53.33000183
H    16.68000031   3.52999973  53.36000061
H     5.89999962   3.17000008  56.14999771
H     6.34999990   2.04999995  54.84000397
S    17.72999954   5.93999958  51.95999908
C    20.43999863   6.15000010  51.24000168
C    19.13999939   5.86000013  50.89000320
C    18.81000137   5.40000010  49.58000183
C    19.82999992   5.23999977  48.66000366
C    21.18999863   5.38999987  49.02000046
C    22.32999992   5.23000002  48.18999863
C    23.61999893   5.47999954  48.61000061
C    23.90000153   6.07999992  49.86000061
C    22.82999992   6.21999979  50.70999908
C    21.50000000   5.84999990  50.34999847
C    17.38999939   5.05999994  49.51000214
C    16.64999962   5.32999992  50.68000031
C    15.27999973   5.19999981  50.87999725
C    25.28000069   6.60000038  50.20000076
H    25.90133286   5.77869892  50.55708694
H    20.63999939   6.51000023  52.25000000
H    19.54000092   4.92999983  47.65999603
H    22.18000031   5.07999992  47.11999893
H    24.37000084   5.46000004  47.83000183
H    23.06999969   6.51000023  51.72999954
H    14.68999958   5.63000011  51.68000031
H    25.71000099   6.94999981  49.26000214
H    25.10999870   7.44999981  50.87999725
S    14.17000008   4.09000015  47.25999832
C    11.46000004   3.95000005  47.90000153
C    12.74000072   4.25000000  48.29999924
C    13.09000015   4.72000027  49.61000061
C    12.03999996   4.92000008  50.47999954
C    10.71000004   4.63999987  50.10000229
C     9.59000015   4.94999981  50.91999817
C     8.28999996   4.67000008  50.56000137
C     7.99000025   4.17000008  49.27000046
C     9.02000046   4.03999996  48.36999893
C    10.36999893   4.25000000  48.75999832
C    14.53999996   4.73000002  49.78000259
C    15.26999950   4.39000034  48.61999893
C    16.64999962   4.51000023  48.46000290
C     6.57999992   3.76999998  48.89999771
H     6.11734200   4.48889875  48.22380829
H    11.36999989   3.67000008  46.84999847
H    12.25000000   5.33999968  51.45999908
H     9.82999992   5.32999992  51.90999985
H     7.53999996   4.75000000  51.33999634
H     8.78000069   3.53999996  47.43000031
H    17.25000000   4.33999968  47.56999969
H     6.00000000   3.73000002  49.84000397
H     6.65999985   2.75000000  48.50000000
