96

S    17.46000099   5.31000042  58.04999924
C    20.15000153   5.36999989  57.35000229
C    18.86000061   5.03000021  57.01000214
C    18.50000000   4.65000010  55.68000031
C    19.50000000   4.55000019  54.72999954
C    20.84000015   4.92000008  54.99000168
C    21.87999916   4.71000004  54.03999710
C    23.19000053   4.67999983  54.43999863
C    23.54999924   5.17000008  55.72999954
C    22.53999901   5.42999983  56.63000107
C    21.14999962   5.28999996  56.33999634
C    17.05999947   4.51999998  55.48999786
C    16.39999962   4.94000006  56.66999817
C    15.01999950   5.03999996  56.63999939
C    25.00999832   5.42999983  56.00000000
H    25.31591415   5.10985565  56.99600220
H    20.36000061   5.68000031  58.36999893
H    19.19000053   4.21999979  53.74000168
H    21.54999924   4.46000004  53.02999878
H    23.95000076   4.38000011  53.73000336
H    22.82999992   5.72000027  57.63999939
H    14.67000008   5.45000029  57.58999634
H    25.61000061   4.79999971  55.34000015
H    25.29000092   6.44000006  55.66999817
S    13.86999989   3.47000003  53.15999985
C    11.18000031   3.63999987  53.76999664
C    12.46999931   3.91999984  54.15000153
C    12.82999992   4.61000013  55.35999680
C    11.79999924   4.76999998  56.25999832
C    10.46000004   4.44000006  55.93000031
C     9.44000053   4.65999985  56.90000153
C     8.13000011   4.33999968  56.63000107
C     7.79999971   3.76999998  55.38000107
C     8.75000000   3.52999973  54.40000153
C    10.11000061   3.86999989  54.65999985
C    14.27999973   4.69000006  55.51000214
C    14.96000099   4.15999985  54.38999939
C    16.35000038   4.11999989  54.36000061
C     6.42000008   3.17999983  55.19000244
H     5.78261185   3.68991041  54.46762466
H    11.11999989   3.07999992  52.84000015
H    11.96000004   4.99000025  57.30999756
H     9.72000027   4.82999992  57.94000244
H     7.42000008   4.46000004  57.43999863
H     8.40999985   2.98000002  53.53000259
H    16.82999992   3.63999987  53.50999832
H     5.92999983   3.07999992  56.16000366
H     6.57999992   2.17999983  54.78000259
S    17.53999901   5.53999996  51.84999847
C    20.23999977   5.91000032  51.06999969
C    18.95000076   5.51000023  50.79000092
C    18.53999901   5.07000017  49.48999786
C    19.54000092   5.00999975  48.54000092
C    20.86000061   5.42999983  48.81999969
C    21.90000153   5.40000010  47.84000015
C    23.19999886   5.75000000  48.11999893
C    23.64000130   6.07999992  49.43000031
C    22.65999985   6.15999985  50.38999939
C    21.28999901   5.89999962  50.12000275
C    17.11000061   4.86999989  49.29999924
C    16.44000053   5.23999977  50.48999786
C    15.07999992   5.47999954  50.54999924
C    25.06999969   6.43000031  49.77000427
H    25.48973656   5.82529593  50.57390213
H    20.46999931   6.12999964  52.11000061
H    19.25000000   4.59999990  47.57999802
H    21.68000031   4.98000002  46.86000061
H    23.90999985   5.63000011  47.30999756
H    22.86999893   6.37000036  51.44000244
H    14.63999939   6.00000000  51.40999603
H    25.63999939   6.40999985  48.83999634
H    25.09000015   7.44000006  50.20000076
S    13.86000061   4.30000019  46.95999908
C    11.18000031   4.23000002  47.72999573
C    12.46000099   4.67000008  47.97999954
C    12.84999943   5.05999994  49.31000137
C    11.87000084   5.18000031  50.27999878
C    10.54999924   4.75000000  50.02999878
C     9.59999943   4.69000006  51.07999802
C     8.30999947   4.30000019  50.80999756
C     7.88999987   3.77999997  49.54999924
C     8.85999966   3.71000004  48.57999802
C    10.18000031   4.23999977  48.73000336
C    14.29999924   5.07999992  49.45999908
C    14.96999931   4.63000011  48.29999924
C    16.34000015   4.39000034  48.22999954
C     6.51999998   3.16000009  49.38000107
H     6.05533743   3.64610839  48.52216339
H    11.02000046   3.71000004  46.79000092
H    12.20999908   5.44000053  51.27999878
H     9.94999981   5.03999996  52.04999924
H     7.60999966   4.25000000  51.63999939
H     8.67999935   3.12999988  47.68000031
H    16.76000023   4.03999996  47.29000092
H     5.89999962   3.32999992  50.27000046
H     6.57999992   2.07999992  49.20000076
