96

S    17.09000015   5.40000010  57.81999969
C    19.76000023   5.60999966  57.11000061
C    18.48999977   5.22000027  56.75000000
C    18.18000031   4.63999987  55.47000122
C    19.20999908   4.61000013  54.54000092
C    20.51000214   5.07000017  54.84000397
C    21.63000107   4.96000004  53.96999741
C    22.92000008   5.21000004  54.38999939
C    23.21000099   5.64000034  55.70999908
C    22.14999962   5.78999996  56.56999969
C    20.81000137   5.58000040  56.16000366
C    16.75000000   4.40000010  55.33000183
C    16.05999947   4.80999994  56.50000000
C    14.67000008   4.88999987  56.56000137
C    24.63999939   5.75999975  56.19999695
H    25.01010895   4.97707510  56.86192322
H    19.93000031   6.09000015  58.06999969
H    18.94000053   4.09000015  53.62999725
H    21.51000023   4.59999990  52.95000076
H    23.72999954   4.94000006  53.70999908
H    22.27999878   6.00000000  57.63000107
H    14.13000011   5.05000019  57.48000336
H    25.26000023   5.92999983  55.31999969
H    24.80999947   6.70000029  56.72999954
S    13.53000069   3.86000013  52.84999847
C    10.88999939   3.75999975  53.56999969
C    12.15000057   4.18000031  53.92000198
C    12.55000019   4.63000011  55.21999741
C    11.56999969   4.77999973  56.18000031
C    10.26000023   4.32000017  55.91999817
C     9.21000004   4.33999968  56.88999939
C     7.88000011   4.13000011  56.63999939
C     7.60999966   3.51999998  55.38999939
C     8.57999992   3.40000010  54.43000031
C     9.90999985   3.88000011  54.59000015
C    14.00000000   4.67000008  55.34999847
C    14.65000057   4.21999979  54.18000031
C    16.03000069   4.00000000  54.20999908
C     6.17999983   3.09999990  55.11000061
H     5.63939285   3.83977771  54.51959991
H    10.65999985   3.32999992  52.60000229
H    11.87000084   5.13999987  57.15999985
H     9.51000023   4.65999985  57.88999939
H     7.14999962   4.13000011  57.44999695
H     8.50000000   3.02999997  53.40999985
H    16.57999992   3.73000002  53.30999756
H     5.71000004   2.89000010  56.07999802
H     6.30999994   2.16000009  54.55999756
S    13.81000042   1.74000001  50.37000275
C    11.11999989   1.46000004  51.11000061
C    12.44999981   1.25000000  51.38999939
C    12.90999985   0.48000002  52.50999832
C    11.97999954  -0.13000000  53.33000183
C    10.60999966  -0.09000000  52.95000076
C     9.59999943  -0.65999997  53.76999664
C     8.27000046  -0.64999998  53.43000031
C     7.82000017   0.14000000  52.32999802
C     8.76999950   0.75000000  51.53999710
C    10.15999985   0.73000002  51.86000061
C    14.34999943   0.55000001  52.70000076
C    14.96999931   1.21000004  51.59999847
C    16.31999969   1.51999998  51.52000046
C     6.34999990   0.32999998  52.05999756
H     6.08719492   0.08850352  51.03008652
H    10.82999992   2.06999993  50.26000214
H    12.15000057  -0.79999995  54.16999817
H     9.92999935  -0.97999996  54.75000000
H     7.44999981  -0.99000001  54.05000305
H     8.43000031   1.47000003  50.79999924
H    16.72999954   2.04999995  50.65999985
H     5.59000015  -0.14000000  52.69000244
H     6.15999985   1.38999999  52.27000427
S    17.70000076  -0.07000000  54.89999771
C    20.34000015   0.74000001  54.27999878
C    18.98999977   0.75000000  54.01000214
C    18.52000046   1.43000007  52.84000015
C    19.37999916   2.14000010  52.01000214
C    20.76000023   2.16999984  52.30999756
C    21.78999901   2.51999998  51.38999939
C    23.12999916   2.29999995  51.60999680
C    23.57999992   1.72000003  52.83000183
C    22.63999939   1.25000000  53.70999908
C    21.25999832   1.43000007  53.43999863
C    17.13000107   1.10000002  52.57999802
C    16.53000069   0.37000000  53.63999939
C    15.17000008   0.08000001  53.73000336
C    25.03000069   1.36000013  53.06000137
H    25.41606140   1.55303061  54.06089783
H    20.66999817   0.28000000  55.20999908
H    19.04000092   2.40999985  51.02000427
H    21.42000008   2.91000009  50.44000244
H    23.80000114   2.51999998  50.79000092
H    22.98999977   0.56999999  54.47999954
H    14.89999962  -0.56999999  54.55999756
H    25.62000084   1.80000007  52.25000000
H    25.06000137   0.25999999  53.02000046
