96

S    17.20000076   5.38000011  57.90000153
C    19.92000008   5.59999990  57.12999725
C    18.61999893   5.23999977  56.84999847
C    18.17000008   4.65000010  55.61999893
C    19.12999916   4.51999998  54.62999725
C    20.46999931   4.94000006  54.86000061
C    21.50000000   4.71000004  53.89999771
C    22.84000015   4.85000038  54.15999985
C    23.23999786   5.32999992  55.44000244
C    22.29999924   5.64000034  56.38000107
C    20.90999985   5.42000008  56.13999939
C    16.72999954   4.53999996  55.47000122
C    16.03000069   4.86999989  56.65999985
C    14.65000057   4.99000025  56.77000046
C    24.68000031   5.65000010  55.79000092
H    25.12817192   5.16625786  56.65789032
H    20.15000153   5.86999989  58.15999985
H    18.89999962   4.00000000  53.70999908
H    21.18999863   4.19999981  52.98999786
H    23.52999878   4.65999985  53.34000015
H    22.56999969   5.92999983  57.38999939
H    14.21000004   5.35000038  57.69000244
H    25.32999992   5.42000008  54.93999863
H    24.72999954   6.75000000  55.84999847
S    13.47000027   3.95000005  53.11000061
C    10.73999977   4.01999998  53.88999939
C    12.07999992   4.19000006  54.18000031
C    12.43999958   4.61000013  55.50000000
C    11.49000072   4.94999981  56.45000076
C    10.11000061   4.74000025  56.20999908
C     9.09000015   4.81999969  57.21000290
C     7.83999968   4.33999968  56.93000031
C     7.50999975   3.81999993  55.63999939
C     8.45000076   3.79999995  54.62999725
C     9.77999973   4.21999979  54.92000198
C    13.88000011   4.63999987  55.65000153
C    14.56999969   4.21999979  54.47999954
C    15.95000076   4.11000013  54.38999939
C     6.12999964   3.26999998  55.38000107
H     5.59583473   3.84689832  54.62504578
H    10.39000034   3.58000016  52.95999908
H    11.71000004   5.13999987  57.50000000
H     9.30999947   5.07999992  58.23999786
H     7.11000013   4.33999968  57.74000168
H     8.25000000   3.45000005  53.61999893
H    16.46999931   3.93000007  53.46000290
H     5.51999998   3.24000001  56.29000092
H     6.21999979   2.23000002  55.06000137
S    17.20999908   5.92000008  52.02999878
C    19.92000008   6.14000034  51.30000305
C    18.64999962   5.69999981  51.02000427
C    18.29000092   5.12000036  49.75999832
C    19.29999924   4.76000023  48.89999771
C    20.62000084   5.21000004  49.13999939
C    21.68000031   5.00000000  48.20999908
C    22.96999931   5.33999968  48.52000427
C    23.31999969   5.98999977  49.73999786
C    22.32000160   6.15000010  50.66999817
C    20.95999908   5.88999987  50.37000275
C    16.84999847   5.07000017  49.52000046
C    16.14999962   5.46000004  50.68000031
C    14.77000046   5.61999989  50.70999908
C    24.77000046   6.37000036  49.93999863
H    25.30298424   5.73042059  50.64353561
H    20.20000076   6.54999971  52.27000427
H    19.04999924   4.26000023  47.97000122
H    21.45999908   4.48999977  47.27000427
H    23.69999886   5.05000019  47.77000046
H    22.49000168   6.48000002  51.69000244
H    14.34000015   5.93999958  51.65999985
H    25.26000023   6.34999990  48.95999908
H    24.82000160   7.39000034  50.31999969
S    13.67000008   4.65000010  46.98999786
C    10.95000076   4.44000006  47.74000168
C    12.25000000   4.76000023  48.04999924
C    12.58999920   5.25000000  49.34999847
C    11.59000015   5.44000053  50.28999710
C    10.24000072   5.19999981  49.95999908
C     9.18000031   5.40000010  50.89000320
C     7.86000013   5.22000027  50.58000183
C     7.55000019   4.56999969  49.34999847
C     8.55000019   4.26000023  48.44999695
C     9.90999985   4.59999990  48.68999863
C    14.02999973   5.36999989  49.54999924
C    14.73000050   4.97000027  48.37999725
C    16.10000038   4.73000002  48.39000320
C     6.14000034   4.15000010  49.02000046
H     5.73479509   4.82534170  48.26646042
H    10.67000008   3.93000007  46.81999969
H    11.79999924   5.59999990  51.33999634
H     9.47000027   5.73000002  51.88999939
H     7.13000011   5.36000013  51.37000275
H     8.40999985   3.78999996  47.48000336
H    16.40999985   4.26000023  47.45999908
H     5.44000053   4.01999998  49.86000061
H     6.19999981   3.21000004  48.44999695
