96

S    17.05000114   5.65000010  57.88000107
C    19.73999977   5.64000034  57.22000122
C    18.45000076   5.35000038  56.83000183
C    18.06999969   4.81999969  55.56000137
C    19.04999924   4.77999973  54.58000183
C    20.39999962   5.10999966  54.86999893
C    21.45000076   5.00000000  53.93000031
C    22.75000000   5.23999977  54.29999924
C    23.02999878   5.86999989  55.54000092
C    22.03000069   6.02999973  56.47999573
C    20.72000122   5.55000019  56.19999695
C    16.62999916   4.61000013  55.47000122
C    15.95000076   5.00000000  56.65000153
C    14.57999992   5.26000023  56.68000031
C    24.44000053   6.34000015  55.81999969
H    24.96567535   5.64383364  56.47354126
H    19.92000008   6.25999975  58.09000015
H    18.79999924   4.35999966  53.61000061
H    21.31000137   4.67000008  52.90000153
H    23.64000130   5.03999996  53.69999695
H    22.34999847   6.54999971  57.37999725
H    14.25000000   5.80999947  57.55000305
H    24.87999916   6.44000006  54.81999969
H    24.31999969   7.31999969  56.30000305
S    13.36999989   4.32999992  53.02000046
C    10.67999935   4.13999987  53.80000305
C    11.97999954   4.46999979  54.10999680
C    12.36999989   4.81999969  55.44000244
C    11.43000031   4.82999992  56.45999908
C    10.11999989   4.42000008  56.11999893
C     9.11999989   4.57999992  57.12999725
C     7.82000017   4.23999977  56.86999893
C     7.39000034   3.84000015  55.56999969
C     8.31999969   3.73000002  54.55999756
C     9.68999958   4.01999998  54.80999756
C    13.81000042   4.94000006  55.54999924
C    14.50000000   4.65000010  54.34999847
C    15.85999966   4.34999990  54.34000015
C     5.93999958   3.50000000  55.30000305
H     5.48506165   4.18240690  54.58205414
H    10.52000046   3.72000003  52.81000137
H    11.77999973   5.09999990  57.44999695
H     9.48000050   4.98000002  58.06999969
H     7.09000015   4.33999968  57.67000198
H     8.03999996   3.53999996  53.53000259
H    16.34000015   4.23999977  53.36999893
H     5.46000004   3.45000005  56.27999878
H     6.05000019   2.47000003  54.93999863
S    14.07999992   2.28999996  50.27000046
C    11.40999985   1.65999997  50.83000183
C    12.75000000   1.49000001  51.11999893
C    13.21000004   0.76999998  52.27000427
C    12.22000027   0.22000000  53.06999969
C    10.85000038   0.52999997  52.91999817
C     9.81999969   0.08000001  53.80000305
C     8.47999954   0.17000002  53.47999954
C     8.09000015   0.87000000  52.30999756
C     9.02999973   1.30999994  51.40999603
C    10.42000008   1.19000006  51.72000122
C    14.63999939   0.92000002  52.49000168
C    15.22999954   1.75999999  51.52000046
C    16.50000000   2.30999994  51.60999680
C     6.67000008   1.34000003  52.08000183
H     6.16626644   0.77950746  51.29247284
H    11.13000011   2.17999983  49.92000198
H    12.57999992  -0.32999998  53.94000244
H    10.13000011  -0.46999997  54.68000031
H     7.88999987  -0.20999999  54.31000137
H     8.82000065   1.82999992  50.47999954
H    16.86000061   3.12999988  50.98999786
H     6.07999992   1.48000002  52.98999786
H     6.60000038   2.34999990  51.65000153
S    17.98999977   0.29999998  54.72999954
C    20.62999916   0.82000005  53.97999573
C    19.29000092   1.08999991  53.81999969
C    18.78999901   1.81999993  52.69000244
C    19.65999985   2.45000005  51.83000183
C    21.05999947   2.23000002  51.93999863
C    22.03000069   2.73999977  51.03000259
C    23.38000107   2.61000013  51.25000000
C    23.81999969   1.87999988  52.38999939
C    22.90999985   1.46000004  53.33000183
C    21.51000023   1.47000003  53.08000183
C    17.32999992   1.75999999  52.58999634
C    16.77999878   0.90000004  53.56999969
C    15.47999954   0.44000000  53.50999832
C    25.26000023   1.43999994  52.48000336
H    25.73632622   1.95898151  53.31179047
H    20.98999977   0.25000000  54.84000397
H    19.31999969   2.94000006  50.91999817
H    21.68000031   3.49000001  50.34000015
H    24.01000023   3.12999988  50.52999878
H    23.36000061   0.93000001  54.16999817
H    15.03999901  -0.14999999  54.31000137
H    25.81000137   1.65999997  51.56000137
H    25.29999924   0.34999999  52.63999939
