96

S    17.15999985   5.26000023  58.01000214
C    19.86999893   5.40000010  57.32999802
C    18.55999947   5.19000006  56.93000031
C    18.22000122   4.88999987  55.56999969
C    19.19999886   4.63999987  54.64000320
C    20.53999901   4.94000006  55.00999832
C    21.60000038   4.94000006  54.06000137
C    22.89999962   5.26000023  54.36000061
C    23.25000000   5.66999960  55.68000031
C    22.22999954   5.72000027  56.59999847
C    20.88000107   5.36999989  56.33999634
C    16.77000046   4.76000023  55.47000122
C    16.03999901   5.00000000  56.65999985
C    14.65000057   5.00000000  56.70000076
C    24.73999977   5.77000046  55.94999695
H    25.07992554   5.16804886  56.79273224
H    20.13999939   5.78999996  58.30999756
H    19.09000015   4.34999990  53.59000397
H    21.35999870   4.59000015  53.06000137
H    23.54999924   5.00999975  53.53000259
H    22.56000137   5.92000008  57.61000061
H    14.14000034   5.14999962  57.64999771
H    25.19000053   5.60999966  54.95999908
H    24.79999924   6.84000015  56.17000198
S    13.63000011   3.96000004  53.00000000
C    10.93000031   3.72000003  53.64999771
C    12.20999908   4.02999973  54.06000137
C    12.53000069   4.51000023  55.37000275
C    11.49000072   4.74000025  56.25000000
C    10.14999962   4.46000004  55.86999893
C     9.01000023   4.80999994  56.63999939
C     7.73000002   4.44999981  56.31000137
C     7.50999975   3.67000008  55.13999939
C     8.56000042   3.42000008  54.29000092
C     9.88000011   3.84999990  54.59000015
C    13.96999931   4.61000013  55.54000092
C    14.70000076   4.21999979  54.38999939
C    16.09000015   4.36999989  54.31999969
C     6.09000015   3.23000002  54.86000061
H     5.61269999   3.72154784  54.01226044
H    10.60999966   3.58000016  52.62000275
H    11.67000008   5.09000015  57.25999832
H     9.26999950   5.38999987  57.51999664
H     6.85999966   4.86000013  56.81000137
H     8.43999958   2.89999986  53.34000015
H    16.63999939   3.95000005  53.48999786
H     5.51000023   3.48000002  55.75000000
H     6.09000015   2.14000010  54.75999832
S    17.42000008   6.02999973  51.77999878
C    20.12000084   6.15000010  51.11999893
C    18.84000015   5.84000015  50.72999954
C    18.53999901   5.35000038  49.40999985
C    19.63999939   5.07999992  48.61000061
C    20.95999908   5.47999954  48.90999603
C    22.04999924   5.38000011  48.00000000
C    23.31000137   5.78000021  48.37999725
C    23.59000015   6.21999979  49.69999695
C    22.53999901   6.38999987  50.56000137
C    21.21000099   6.00000000  50.22999573
C    17.11000061   5.22000027  49.22000122
C    16.39999962   5.63000011  50.38000107
C    15.01999950   5.64000034  50.51000214
C    25.03000069   6.51999998  50.06000137
H    25.45589066   5.88116455  50.83369827
H    20.34000015   6.44999981  52.14000320
H    19.37999916   4.67999983  47.63000107
H    21.77999878   5.03000021  47.01000214
H    24.07999992   5.84999990  47.61000061
H    22.72000122   6.85999966  51.52999878
H    14.51000023   6.03999996  51.38000107
H    25.62999916   6.50000000  49.13999939
H    25.00999832   7.57999992  50.34000015
S    13.89000034   4.09000015  47.04000092
C    11.17000008   3.98000002  47.87000275
C    12.46999931   4.36999989  48.06999969
C    12.81999969   5.09000015  49.26000214
C    11.77999973   5.52999973  50.06000137
C    10.47999954   4.98000002  49.94999695
C     9.40999985   5.22000027  50.86000061
C     8.18000031   4.61999989  50.70000076
C     7.81000042   4.00999975  49.47000122
C     8.76000023   3.86000013  48.48999786
C    10.10000038   4.26999998  48.75999832
C    14.26000023   5.22000027  49.40999985
C    14.98000050   4.69999981  48.29999924
C    16.36000061   4.67999983  48.15999985
C     6.35999966   3.70000005  49.19000244
H     5.97535229   4.18437147  48.29248810
H    10.90000057   3.35999990  47.02000046
H    11.89000034   6.28000021  50.84000015
H     9.72999954   5.59000015  51.83000183
H     7.44999981   4.73000002  51.49000168
H     8.52000046   3.61000013  47.45999908
H    16.79000092   4.07000017  47.37999725
H     5.84000015   4.07000017  50.08999634
H     6.21999979   2.61999989  49.03999710
