96

S    17.20000076   5.35000038  57.90000153
C    19.90999985   5.46999979  57.08000183
C    18.60000038   5.13999987  56.81999969
C    18.25000000   4.67999983  55.51000214
C    19.22999954   4.46999979  54.55999756
C    20.59000015   4.67000008  54.86000061
C    21.65999985   4.44999981  53.94000244
C    22.96999931   4.76000023  54.19000244
C    23.28000069   5.14999962  55.52000046
C    22.32000160   5.35000038  56.47999573
C    20.94000053   5.19000006  56.14999771
C    16.79999924   4.57999992  55.40000153
C    16.10000038   4.88000011  56.59999847
C    14.70999908   4.88000011  56.65999985
C    24.68000031   5.65000010  55.79000092
H    25.17932320   4.98661423  56.49618530
H    20.27000046   5.97000027  57.97999954
H    18.90999985   4.26999998  53.54000092
H    21.45000076   4.13999987  52.91999817
H    23.72999954   4.67000008  53.41999817
H    22.47999954   5.77000046  57.47000122
H    14.13000011   5.27999973  57.48000336
H    25.28000069   5.68000031  54.86999893
H    24.56000137   6.65000010  56.22000122
S    13.55999947   3.81999993  53.00000000
C    10.80999947   3.91000009  53.62999725
C    12.13000107   4.07000017  54.02000046
C    12.53000069   4.55000019  55.30000305
C    11.51000023   4.76000023  56.20999908
C    10.14000034   4.61000013  55.86999893
C     9.17000008   4.59999990  56.91999817
C     7.86000013   4.32000017  56.59999847
C     7.44999981   3.93000007  55.30000305
C     8.38999939   3.94000006  54.29999924
C     9.77000046   4.17000008  54.54999924
C    13.96999931   4.61000013  55.50000000
C    14.67000008   4.30000019  54.31000137
C    16.04999924   4.19999981  54.27999878
C     6.01000023   3.54999995  55.02999878
H     5.66818476   4.11257076  54.16122055
H    10.47000027   3.60000014  52.63999939
H    11.84000015   4.86999989  57.23999786
H     9.32999992   4.85000038  57.95999908
H     7.11999989   4.35999966  57.39999771
H     8.18000031   3.47000003  53.34000015
H    16.60000038   3.82999992  53.41999817
H     5.31000042   3.76999998  55.84000015
H     5.88999987   2.47000003  54.82999802
S    14.23999977   2.04999995  50.25000000
C    11.56999969   1.26999998  50.68999863
C    12.90999985   1.10000002  50.93999863
C    13.35000038   0.55000001  52.18999863
C    12.38000011   0.05000000  53.04999924
C    11.00000000   0.20999999  52.83000183
C    10.03000069  -0.11000000  53.81999969
C     8.69999981   0.20999999  53.62999725
C     8.27999973   0.83999997  52.43000031
C     9.19999981   1.18000007  51.45999908
C    10.57000065   0.82000005  51.59999847
C    14.73000050   0.88000000  52.48000336
C    15.42000008   1.63000000  51.50000000
C    16.77999878   1.94999993  51.51000214
C     6.83000040   1.14999998  52.14000320
H     6.42502689   0.52477860  51.34426880
H    11.31999969   2.07999992  50.00999832
H    12.81000042  -0.32999998  53.97999573
H    10.31000042  -0.74000001  54.65999985
H     7.95000029  -0.03000000  54.38000107
H     8.94999981   1.72999990  50.56000137
H    17.27000046   2.43000007  50.65999985
H     6.21000004   1.10000002  53.04000092
H     6.84000015   2.19000006  51.79000092
S    17.97000122   0.14999999  54.82999802
C    20.65000153   0.68000007  54.45000076
C    19.36000061   0.88000000  54.02000046
C    18.98999977   1.43999994  52.75000000
C    20.03999901   1.89999998  51.97999954
C    21.38999939   1.58999991  52.25999832
C    22.40999985   2.00000000  51.35000229
C    23.71999931   1.66999996  51.63999939
C    24.02000046   1.00999999  52.85999680
C    23.06999969   0.73000002  53.80000305
C    21.68999863   1.00000000  53.54000092
C    17.53999901   1.49000001  52.57999802
C    16.84999847   0.76999998  53.60000229
C    15.50000000   0.46000001  53.57999802
C    25.48000145   0.74000001  53.18999863
H    25.94999695   1.39514422  53.92347717
H    20.90999985   0.19999999  55.38999939
H    19.67000008   2.36000013  51.06999969
H    22.21999931   2.66999984  50.52000046
H    24.53000069   1.84000003  50.93999863
H    23.29999924   0.28999999  54.77000427
H    14.98999977  -0.12000000  54.34000015
H    26.04999924   0.71000004  52.25999832
H    25.39999962  -0.25000000  53.64999771
