96

S    16.76000023   5.51999998  58.02000046
C    19.47999954   5.38000011  57.39999771
C    18.18000031   5.10999966  57.04000092
C    17.89999962   4.67999983  55.70999908
C    18.89000130   4.42999983  54.78000259
C    20.22999954   4.67999983  55.18000031
C    21.35999870   4.56999969  54.31999969
C    22.65000153   4.90999985  54.65999985
C    22.89999962   5.50000000  55.93000031
C    21.88999939   5.51000023  56.86000061
C    20.55999947   5.14999962  56.50000000
C    16.45000076   4.65000010  55.52999878
C    15.72999954   5.22000027  56.60999680
C    14.34999943   5.22000027  56.72999954
C    24.30000114   6.01999998  56.18000031
H    24.90625572   5.29962635  56.72919464
H    19.68000031   5.92000008  58.31999969
H    18.68999863   4.09999990  53.76999664
H    21.25000000   4.25000000  53.29000092
H    23.43000031   4.84000015  53.90999603
H    22.11000061   5.79999971  57.88000107
H    13.83999920   5.56999969  57.62000275
H    24.77999878   6.32000017  55.24000168
H    24.25000000   6.97000027  56.72000122
S    13.25000000   3.86000013  53.18999863
C    10.52999973   3.82999992  53.79000092
C    11.79999924   4.23000002  54.13999939
C    12.18999958   4.79999971  55.38999939
C    11.14999962   4.92999983  56.30000305
C     9.82999992   4.50000000  56.00999832
C     8.84000015   4.53999996  57.04000092
C     7.57999992   4.02999973  56.86000061
C     7.25000000   3.47000003  55.59999847
C     8.14999962   3.42999983  54.56999969
C     9.48000050   3.91999984  54.73999786
C    13.63000011   4.90000010  55.56999969
C    14.34999943   4.53999996  54.40999985
C    15.72000027   4.28999996  54.38999939
C     5.82999992   3.09999990  55.24000168
H     5.43138599   3.61250353  54.36447525
H    10.24000072   3.35000014  52.85999680
H    11.30000019   5.25000000  57.31999969
H     9.02000046   5.05000019  57.97999954
H     6.81999969   4.21000004  57.62000275
H     7.77999973   3.15000010  53.59000397
H    16.13000107   3.79999995  53.50999832
H     5.27999973   3.48000002  56.11000061
H     5.79999971   2.00000000  55.24000168
S    17.42000008   5.69999981  51.73999786
C    20.13000107   5.80999947  51.19999695
C    18.86999893   5.47999954  50.73999786
C    18.50000000   5.10999966  49.40999985
C    19.55000114   4.92999983  48.53000259
C    20.88000107   5.15999985  48.95000076
C    21.94999886   4.94000006  48.02999878
C    23.23999786   5.13000011  48.47000122
C    23.54999924   5.73000002  49.71000290
C    22.53999901   5.84999990  50.63000107
C    21.18999863   5.53999996  50.30000305
C    17.05999947   5.01999950  49.20000076
C    16.34000015   5.26999998  50.40000153
C    14.96000099   5.38999987  50.52000046
C    24.93000031   6.25999975  50.02999878
H    25.42657661   5.62154436  50.76067352
H    20.25000000   6.38000011  52.11999893
H    19.45000076   4.46999979  47.55000305
H    21.75000000   4.50000000  47.05999756
H    24.05999947   4.94000006  47.78999710
H    22.86999893   6.38000011  51.52000046
H    14.42999935   5.66999960  51.42000198
H    25.45999908   6.15000010  49.08000183
H    24.87999916   7.30999994  50.34999847
S    13.78999901   4.42000008  46.84000015
C    11.06999969   4.48000002  47.60000229
C    12.38999939   4.80999994  47.84999847
C    12.81999969   5.22000027  49.15000153
C    11.85999966   5.38999987  50.13999939
C    10.51000023   5.07999992  49.86000061
C     9.53999996   5.10999966  50.90999985
C     8.27000046   4.63000011  50.72999954
C     7.85000038   4.13999987  49.45999908
C     8.76000023   4.01999998  48.43000031
C    10.06000042   4.56999969  48.60000229
C    14.27000046   5.23000002  49.31000137
C    14.93999958   4.90000010  48.11000061
C    16.32999992   4.88000011  48.01000214
C     6.39999962   3.81000018  49.22999954
H     5.91542053   4.35158825  48.41761780
H    10.65000057   4.07000017  46.69000244
H    12.11999989   5.42999983  51.18999863
H     9.85000038   5.36999989  51.91999817
H     7.59000015   4.76000023  51.56000137
H     8.47000027   3.44000006  47.56000137
H    16.81999969   4.69999981  47.06999969
H     5.96000004   4.07999992  50.20000076
H     6.15000010   2.73999977  49.16999817
