96

S    17.11000061   5.28999996  58.01000214
C    19.78999901   5.51000023  57.39999771
C    18.54999924   5.01999950  57.02000046
C    18.23999977   4.55000019  55.70999908
C    19.29000092   4.42000008  54.81999969
C    20.62999916   4.69999981  55.20999908
C    21.76000214   4.32000017  54.43999863
C    23.05000114   4.63000011  54.79999924
C    23.23999786   5.42999983  55.96000290
C    22.20000076   5.65999985  56.83000183
C    20.86000061   5.32000017  56.49000168
C    16.79999924   4.61000013  55.47000122
C    16.05999947   5.03999996  56.59999847
C    14.67000008   5.09999990  56.60999680
C    24.63000107   5.88999987  56.31999969
H    25.05817413   5.24060249  57.08357620
H    19.98999977   5.96000004  58.36999893
H    19.19999886   3.94000006  53.85000229
H    21.56999969   4.21999979  53.37999725
H    23.95000076   4.48000002  54.20000076
H    22.34999847   5.97000027  57.85999680
H    14.17000008   5.50000000  57.50000000
H    25.36000061   5.97000027  55.48999786
H    24.47999954   6.89000034  56.76000214
S    13.76000023   4.07999992  52.84000015
C    10.98999977   3.97000027  53.36000061
C    12.28000069   4.11999989  53.81000137
C    12.56000042   4.57999992  55.13999939
C    11.51999950   4.75000000  56.03000259
C    10.21000004   4.42000008  55.61999893
C     9.15000057   4.44999981  56.56999969
C     7.86000013   4.05000019  56.27999878
C     7.55000019   3.82999992  54.91000366
C     8.52999973   3.86000013  53.95000076
C     9.90999985   4.05000019  54.26000214
C    13.96999931   4.78999996  55.44000244
C    14.70999908   4.56999969  54.25000000
C    16.10000038   4.48000002  54.27000046
C     6.14000034   3.42000008  54.56999969
H     5.62181187   3.96658182  53.78207397
H    10.76000023   3.68999982  52.32999802
H    11.67000008   4.97000027  57.09000015
H     9.40999985   4.92999983  57.50999832
H     7.13000011   3.98999977  57.06999969
H     8.23999977   3.61999989  52.93000031
H    16.61000061   4.19000006  53.36000061
H     5.47999954   3.48000002  55.44000244
H     6.11000013   2.34999990  54.34000015
S    17.94000053   5.78000021  51.88999939
C    20.61000061   5.72000027  51.33999634
C    19.34999847   5.44000053  50.86000061
C    18.98999977   5.05999994  49.52999878
C    20.03999901   5.03999996  48.61999893
C    21.38000107   5.26999998  49.02000046
C    22.43000031   5.09000015  48.06999969
C    23.71999931   5.32000017  48.48999786
C    23.97999954   5.77000046  49.80999756
C    22.98999977   5.92000008  50.76000214
C    21.64999962   5.65999985  50.37000275
C    17.56000137   5.13000011  49.31000137
C    16.87999916   5.53999996  50.48999786
C    15.50000000   5.66999960  50.45999908
C    25.42000008   6.12999964  50.06999969
H    25.88915634   5.49735069  50.82349014
H    20.89999962   6.05000019  52.32999802
H    19.79999924   4.76999998  47.60000229
H    22.17000008   4.88000011  47.04000092
H    24.53000069   5.22000027  47.77999878
H    23.25000000   6.17000008  51.79000092
H    14.88000011   5.84999990  51.32999802
H    25.97999954   6.11999989  49.13000107
H    25.43999863   7.17000008  50.43000031
S    14.39000034   4.53000021  46.79000092
C    11.65999985   4.48000002  47.56000137
C    12.97000027   4.85000038  47.81000137
C    13.30999947   5.21000004  49.15000153
C    12.30999947   5.50000000  50.06999969
C    10.97000027   5.14999962  49.79999924
C     9.85999966   5.51000023  50.61999893
C     8.52999973   5.23000002  50.43000031
C     8.26000023   4.42999983  49.27999878
C     9.30000019   4.11000013  48.43000031
C    10.65999985   4.48000002  48.55999756
C    14.75000000   5.28999996  49.34000015
C    15.44000053   4.97000027  48.15000153
C    16.81999969   4.77999973  48.16999817
C     6.85999966   3.95000005  48.97999573
H     6.29161596   4.63206053  48.34767151
H    11.32999992   4.09999990  46.59999847
H    12.56999969   6.00000000  51.00000000
H    10.18000031   6.01999998  51.52999878
H     7.76000023   5.73999977  50.98999786
H     9.03999996   3.61000013  47.50000000
H    17.38000107   4.40000010  47.32999802
H     6.28999996   3.74000025  49.87999725
H     6.98999977   3.07000017  48.34000015
