96

S    17.51000023   5.95000029  57.64999771
C    20.20000076   6.01999998  56.97000122
C    18.92000008   5.64000034  56.62000275
C    18.57999992   4.94000006  55.41999817
C    19.59000015   4.69999981  54.50000000
C    20.89999962   5.15999985  54.75999832
C    21.94999886   5.05000019  53.81000137
C    23.22999954   5.42000008  54.13999939
C    23.54000092   5.97000027  55.40999985
C    22.53999901   6.21999979  56.31000137
C    21.21000099   5.82999992  56.00000000
C    17.13999939   4.69999981  55.38999939
C    16.39999962   5.19000006  56.49000168
C    15.03000069   5.40999985  56.52999878
C    24.93999863   6.40999985  55.79000092
H    25.31045723   5.88993406  56.67340088
H    20.46999931   6.35999966  57.97000122
H    19.45000076   4.21000004  53.54000092
H    21.71999931   4.76999998  52.78999710
H    23.98999977   5.49000025  53.36999893
H    22.69000053   6.83000040  57.19999695
H    14.53999996   5.79999971  57.42000198
H    25.68000031   6.25000000  54.99000168
H    25.00000000   7.50000000  55.84999847
S    13.89999962   4.03999996  52.98999786
C    11.19999981   3.91999984  53.69999695
C    12.48000050   4.33999968  54.01000214
C    12.84000015   4.88999987  55.27999878
C    11.82000065   5.05999994  56.20999908
C    10.46000004   4.86000013  55.86000061
C     9.39000034   5.15999985  56.75000000
C     8.14000034   4.67000008  56.47999573
C     7.79999971   4.05000019  55.25000000
C     8.78999996   4.00000000  54.29999924
C    10.14999962   4.30000019  54.58000183
C    14.27999973   5.00000000  55.43000031
C    15.00000000   4.51000023  54.29999924
C    16.36000061   4.25000000  54.31999969
C     6.38999987   3.56999993  54.95999908
H     5.87815046   4.08895826  54.14957047
H    10.88999939   3.42000008  52.78999710
H    12.05000019   5.60999966  57.11999893
H     9.68999958   5.56999969  57.71999741
H     7.44000006   4.81999969  57.29000092
H     8.50000000   3.51000023  53.36999893
H    16.90000153   3.93000007  53.43000031
H     5.86999989   3.61999989  55.91999817
H     6.47000027   2.52999997  54.61999893
S    14.19999981   2.25999999  50.13000107
C    11.51999950   1.80999994  50.70000076
C    12.82999992   1.58999991  51.04999924
C    13.23999977   0.88999999  52.22999954
C    12.23999977   0.24000001  52.93000031
C    10.86999989   0.41000003  52.62000275
C     9.90999985  -0.14999999  53.50999832
C     8.60000038   0.05000000  53.15000153
C     8.15999985   0.88000000  52.08000183
C     9.11000061   1.44999993  51.26999664
C    10.50000000   1.25999999  51.52000046
C    14.67000008   1.00000000  52.43999863
C    15.31999969   1.72000003  51.39999771
C    16.67000008   2.02999997  51.39999771
C     6.70000029   1.12000000  51.77999878
H     6.27364922   0.55863792  50.94861603
H    11.19999981   2.48000002  49.91000366
H    12.36999989  -0.37000000  53.81999969
H    10.19000053  -0.74000001  54.38000107
H     7.83999968  -0.41000003  53.77999878
H     8.80999947   2.00000000  50.38000107
H    17.02999878   2.48000002  50.47999954
H     6.15999985   0.81000000  52.69000244
H     6.57000017   2.21000004  51.77000046
S    17.98999977   0.48999998  54.77000427
C    20.62999916   1.13000000  54.03999710
C    19.27999878   1.28000009  53.85000229
C    18.88000107   1.94000006  52.64999771
C    19.76000023   2.36000013  51.65999985
C    21.15999985   2.26999998  51.84000015
C    22.07999992   2.56999993  50.79999924
C    23.42000008   2.56000018  51.11000061
C    23.84000015   2.03999996  52.36000061
C    22.93999863   1.46000004  53.22000122
C    21.54000092   1.67999995  53.09999847
C    17.45000076   1.67999995  52.50999832
C    16.79000092   0.97000003  53.54999924
C    15.46000004   0.57999998  53.50999832
C    25.34000015   1.90999997  52.56000137
H    25.71673775   2.02373219  53.57648087
H    20.98999977   0.54000002  54.88999939
H    19.32999992   2.53999996  50.68000031
H    21.77999878   2.92000008  49.81999969
H    24.18000031   2.89999986  50.40000153
H    23.38000107   0.86000001  54.01000214
H    15.03999901  -0.05000000  54.29000092
H    25.88999939   2.64999986  51.97999954
H    25.63999939   0.96000004  52.11000061
