96

S    17.29999924   5.27999973  57.90000153
C    20.03999901   5.36000013  57.22000122
C    18.75000000   5.01999950  56.90000153
C    18.43000031   4.63999987  55.56000137
C    19.43000031   4.53999996  54.61000061
C    20.76999855   4.85000038  54.93999863
C    21.83000183   4.84000015  53.99000168
C    23.12000084   5.07000017  54.41999817
C    23.38999939   5.53999996  55.72999954
C    22.40999985   5.63000011  56.69000244
C    21.09999847   5.26999998  56.27999878
C    16.97999954   4.56999969  55.40000153
C    16.21999931   4.92000008  56.53999710
C    14.84000015   5.03999996  56.62000275
C    24.71999931   6.17000008  56.07999802
H    25.27507019   5.42990732  56.65641785
H    20.27000046   5.92000008  58.11999893
H    19.07999992   4.36999989  53.59000397
H    21.60000038   4.61000013  52.95999908
H    23.88000107   4.97000027  53.66000366
H    22.44999886   6.14000034  57.64999771
H    14.34999943   5.32999992  57.54000092
H    25.20000076   6.43000031  55.13000107
H    24.57999992   7.11999989  56.62000275
S    13.76999950   3.91999984  52.97999954
C    11.03999996   3.71000004  53.67000198
C    12.32999992   4.07999992  54.00000000
C    12.64000034   4.56999969  55.30000305
C    11.63000011   4.76999998  56.22000122
C    10.31000042   4.41000032  55.86000061
C     9.34000015   4.56999969  56.88999939
C     8.07999992   4.09000015  56.62000275
C     7.69999981   3.63000011  55.33000183
C     8.61999989   3.45999980  54.31999969
C     9.96999931   3.82999992  54.59000015
C    14.07999992   4.67999983  55.50000000
C    14.82999992   4.34999990  54.34000015
C    16.21000099   4.23000002  54.27999878
C     6.25999975   3.32999992  55.00000000
H     6.04708624   3.52871943  53.94963074
H    10.92000008   3.31999993  52.65999603
H    11.73999977   5.18000031  57.22000122
H     9.59999943   4.97000027  57.87000275
H     7.31999969   3.95000005  57.37999725
H     8.38000011   3.12999988  53.31999969
H    16.72000122   3.97000027  53.34999847
H     5.55999994   3.91000009  55.61999893
H     6.25000000   2.28999996  55.34000015
S    17.64000130   5.84999990  51.79999924
C    20.30999947   6.00000000  51.06999969
C    19.05999947   5.49000025  50.80999756
C    18.68999863   4.98000002  49.52000046
C    19.67000008   4.81999969  48.56999969
C    21.02000046   5.19000006  48.81999969
C    22.04999924   4.84000015  47.90999985
C    23.32999992   5.25000000  48.20000076
C    23.65999985   5.89999962  49.41999817
C    22.67000008   6.15000010  50.34999847
C    21.31999969   5.77000046  50.10000229
C    17.23999977   4.92999983  49.33000183
C    16.56999969   5.55000019  50.40999985
C    15.18000031   5.61999989  50.52999878
C    25.05000114   6.44000006  49.65000153
H    25.54029274   5.85022593  50.42452240
H    20.55999947   6.43000031  52.04000092
H    19.43000031   4.21000004  47.70000076
H    21.80000114   4.32000017  46.97999954
H    24.06999969   5.03999996  47.43000031
H    22.98999977   6.65000010  51.25999832
H    14.82999992   5.88000011  51.52999878
H    25.62000084   6.44000006  48.72000122
H    24.96999931   7.49000025  49.93999863
S    14.01999950   4.19000006  46.97999954
C    11.38000011   3.95000005  47.81999969
C    12.65999985   4.33999968  48.11000061
C    13.03999996   4.88999987  49.38000107
C    12.03999996   5.12000036  50.31000137
C    10.70000076   4.77999973  50.02999878
C     9.61999989   5.07999992  50.90999985
C     8.30000019   4.86000013  50.56000137
C     8.01999950   4.28000021  49.29999924
C     9.00000000   3.95000005  48.39000320
C    10.34999943   4.19000006  48.76999664
C    14.47000027   5.19000006  49.40999985
C    15.13000011   4.74000025  48.23999786
C    16.50000000   4.51000023  48.22000122
C     6.57999992   3.97000027  48.96999741
H     6.23763657   4.61906481  48.16401672
H    11.25000000   3.42999983  46.86999893
H    12.28000069   5.52999973  51.29000092
H     9.88000011   5.46000004  51.88999939
H     7.51999950   4.96000004  51.30000305
H     8.89999962   3.56999993  47.36999893
H    17.06999969   4.07999992  47.39999771
H     5.95000029   4.07999992  49.86999893
H     6.51000023   2.94999981  48.57999802
