96

S    17.32999992   5.36000013  57.85999680
C    20.02000046   5.52999973  57.19999695
C    18.76000023   5.09000015  56.84999847
C    18.34000015   4.59000015  55.58000183
C    19.37000084   4.32000017  54.68999863
C    20.69999886   4.67000008  55.02999878
C    21.77999878   4.48999977  54.12000275
C    23.05000114   4.94999981  54.38999939
C    23.35000038   5.60999966  55.61000061
C    22.40999985   5.64000034  56.60999680
C    21.07999992   5.26999998  56.27999878
C    16.90000153   4.61000013  55.43000031
C    16.17000008   5.05999994  56.56000137
C    14.78999996   5.23000002  56.55000305
C    24.76000023   6.07999992  55.87999725
H    25.28531837   5.44109964  56.58988953
H    20.17999840   5.97000027  58.18000031
H    19.14999962   3.75000000  53.79000092
H    21.42999840   4.00999975  53.22000122
H    23.90000153   4.84000015  53.72000122
H    22.56000137   6.14000034  57.56999969
H    14.15999985   5.32999992  57.43000031
H    25.36999893   6.34999990  55.00999832
H    24.67000008   7.02000046  56.44000244
S    13.68999958   3.98000002  52.95000076
C    10.95000076   3.77999997  53.67000198
C    12.23999977   4.17000008  53.95999908
C    12.64000034   4.72000027  55.21999741
C    11.64999962   4.84000015  56.18000031
C    10.31000042   4.44000006  55.96000290
C     9.28999996   4.59999990  56.93000031
C     7.96999979   4.39000034  56.59999847
C     7.59999990   3.95000005  55.30000305
C     8.57999992   3.68000007  54.36999893
C     9.94999981   3.91000009  54.66999817
C    14.06999969   4.86999989  55.40000153
C    14.78999996   4.53000021  54.22999954
C    16.18000031   4.42000008  54.23999786
C     6.17000008   3.51000023  55.02999878
H     5.87781429   4.03023243  54.11781311
H    10.75000000   3.37000012  52.68000031
H    11.84999943   5.15999985  57.19999695
H     9.52999973   5.01999950  57.90000153
H     7.17999983   4.59999990  57.30999756
H     8.18000031   3.31999993  53.43000031
H    16.77999878   4.19999981  53.36999893
H     5.40000010   3.60000014  55.79999924
H     6.25000000   2.46000004  54.72000122
S    14.19000053   1.98000002  49.91000366
C    11.47999954   1.33000004  50.47000122
C    12.81999969   1.24000001  50.76000214
C    13.22999954   0.64000005  51.98999786
C    12.25999928   0.17999999  52.85999680
C    10.88000107   0.41999999  52.62000275
C     9.89999962  -0.12000000  53.50000000
C     8.56999969   0.12000000  53.25000000
C     8.11999989   0.79000002  52.09000015
C     9.04999924   1.08999991  51.11999893
C    10.44999981   1.00000000  51.38000107
C    14.65999985   0.76999998  52.25999832
C    15.26999950   1.57000005  51.25999832
C    16.62999916   1.87000012  51.30000305
C     6.65000010   0.75000000  51.72000122
H     6.37962723  -0.13938284  51.15079498
H    11.18999958   1.88999999  49.58000183
H    12.56000042  -0.34999999  53.75999832
H    10.36000061  -0.64999998  54.33000183
H     7.88000011  -0.34999999  53.95000076
H     8.80999947   1.39999998  50.10000229
H    17.05999947   2.39999986  50.45999908
H     6.05000019   0.87000000  52.62000275
H     6.53999996   1.72999990  51.22000122
S    17.88999939   0.06000000  54.69999695
C    20.58000183   0.67000002  54.02999878
C    19.22999954   0.82000005  53.81999969
C    18.76000023   1.53999996  52.67000198
C    19.71999931   1.99000001  51.79000092
C    21.11999893   1.85000002  51.97000122
C    22.04999924   2.39999986  51.04000092
C    23.39999962   2.21000004  51.18999863
C    23.81000137   1.50000000  52.35000229
C    22.96999931   0.99000001  53.30999756
C    21.56999969   1.22000003  53.18000031
C    17.32999992   1.42000008  52.42000198
C    16.77000046   0.62000000  53.43999863
C    15.42000008   0.31000000  53.34000015
C    25.23999977   1.03999996  52.52999878
H    25.58135605   1.26757050  53.53984451
H    20.95999908   0.06000000  54.85000229
H    19.37000084   2.26999998  50.79999924
H    21.61999893   2.86999989  50.14999771
H    24.18999863   2.51999998  50.51000214
H    23.31000137   0.31000000  54.08000183
H    14.86999989  -0.19000000  54.13999939
H    25.84000015   1.53999996  51.76000214
H    25.28000069  -0.02000000  52.27000427
