96

S    17.26000023   5.52999973  58.20000076
C    19.95000076   5.50000000  57.43999863
C    18.64999962   5.17000008  57.14000320
C    18.20999908   4.57999992  55.91999817
C    19.17000008   4.46000004  54.93999863
C    20.50000000   4.92999983  55.10000229
C    21.54999924   4.74000025  54.15999985
C    22.86999893   4.96000004  54.48999786
C    23.23999786   5.55999994  55.72000122
C    22.23999977   5.82999992  56.63000107
C    20.89999962   5.40000010  56.39999771
C    16.76000023   4.63000011  55.77999878
C    16.09000015   5.03999996  56.95999908
C    14.70000076   5.10999966  56.97999954
C    24.63000107   6.00000000  56.10000229
H    24.97163963   5.39501238  56.93986893
H    20.09000015   6.10000038  58.34000015
H    18.95000076   3.97000027  53.99000168
H    21.31000137   4.33999968  53.18000031
H    23.57999992   4.76000023  53.68999863
H    22.52000046   6.37000036  57.52999878
H    14.27000046   5.35000038  57.95000076
H    25.28000069   5.89999962  55.21999741
H    24.65999985   7.07999992  56.24000168
S    13.53999996   3.77999997  53.40000153
C    10.85999966   3.82999992  53.99000168
C    12.13000107   4.11999989  54.43000031
C    12.46999931   4.65000010  55.72000122
C    11.44999981   4.86999989  56.63000107
C    10.11999989   4.63000011  56.22000122
C     9.03999996   4.72000027  57.15000153
C     7.73999977   4.48000002  56.79000092
C     7.48000050   4.05000019  55.45999908
C     8.47000027   3.88999987  54.52000046
C     9.81999969   4.11999989  54.91000366
C    13.90999985   4.76000023  55.87999725
C    14.59000015   4.38000011  54.68999863
C    15.98000050   4.32000017  54.65999985
C     6.06999969   3.61999989  55.10000229
H     5.66254425   4.32768583  54.37801743
H    10.64000034   3.32999992  53.06000137
H    11.57999992   5.18000031  57.65999603
H     9.26999950   5.05999994  58.15000153
H     6.90999985   4.42999983  57.49000168
H     8.21000004   3.50000000  53.54000092
H    16.50000000   3.96000004  53.77999878
H     5.45000029   3.48000002  55.98999786
H     6.15000010   2.61999989  54.65000153
S    14.07999992   1.74000001  50.45999908
C    11.43000031   1.25999999  50.93000031
C    12.71999931   1.07000005  51.38000107
C    13.05999947   0.48000002  52.63999939
C    12.05999947   0.01000000  53.47000122
C    10.72999954   0.14999999  53.01000214
C     9.64999962  -0.37000000  53.77999878
C     8.32999992  -0.20999999  53.40999985
C     8.01999950   0.67000002  52.34000397
C     9.02999973   1.22000003  51.58000183
C    10.39000034   0.88000000  51.81999969
C    14.50000000   0.61000001  52.81999969
C    15.19000053   1.26999998  51.77000046
C    16.54000092   1.57000005  51.68000031
C     6.61000013   1.13999999  52.09000015
H     6.20400810   0.63429093  51.21391296
H    11.17000008   1.71000004  49.98000336
H    12.10999966  -0.16000001  54.54000092
H     9.94000053  -0.87000000  54.69999695
H     7.55999994  -0.79000002  53.89999771
H     8.73000050   1.76999998  50.68999863
H    17.00000000   1.93000007  50.77000046
H     6.10000038   1.03999996  53.06999969
H     6.63000011   2.22000003  51.95999908
S    17.75000000   0.34000003  55.24000168
C    20.45000076   0.76999998  54.45999908
C    19.10000038   0.96000004  54.27000046
C    18.63999939   1.56000006  53.04999924
C    19.54000092   1.98000002  52.09000015
C    20.93000031   1.80000007  52.28000259
C    21.94000053   2.01999998  51.31000137
C    23.29999924   1.86000001  51.46999741
C    23.74000168   1.46000004  52.75000000
C    22.79999924   1.12000000  53.69999695
C    21.40000153   1.29999995  53.54999924
C    17.20000076   1.42000008  52.90999985
C    16.55999947   0.75000000  53.99000168
C    15.26999950   0.24000001  53.93000031
C    25.22000122   1.25999999  52.97999954
H    25.56806946   1.69330919  53.91765213
H    20.86999893   0.43000001  55.40000153
H    19.10000038   2.19000006  51.11999893
H    21.56999969   2.52999997  50.41999817
H    24.04000092   2.02999997  50.70000076
H    23.02000046   0.65999997  54.65999985
H    14.88999939  -0.52999997  54.59000015
H    25.69000053   1.70000005  52.09999847
H    25.39999962   0.17999999  52.94000244
