96

S    17.01000023   5.55000019  57.77000046
C    19.75000000   5.50000000  57.16999817
C    18.45000076   5.23999977  56.79000092
C    18.04999924   4.79999971  55.48999786
C    19.07999992   4.67000008  54.56999969
C    20.43000031   4.88999987  54.92000198
C    21.55999947   4.69000006  54.06999969
C    22.86000061   5.01999950  54.40000153
C    23.09999847   5.61999989  55.65999985
C    22.10000038   5.79999971  56.59000015
C    20.79000092   5.40999985  56.20999908
C    16.61000061   4.67000008  55.33000183
C    15.90000057   5.19000006  56.43000031
C    14.52000046   5.36000013  56.40999603
C    24.48999786   6.06999969  56.04000092
H    25.07449341   5.37145710  56.63875198
H    19.97999954   5.84000015  58.16999817
H    18.82999992   4.39000034  53.54999924
H    21.40000153   4.44999981  53.02999878
H    23.62999916   4.74000025  53.68000031
H    22.25000000   6.34000015  57.51999664
H    13.96999931   5.51999998  57.34000397
H    25.06999969   6.25000000  55.13000107
H    24.48999786   7.07000017  56.51000214
S    13.35999966   3.93000007  52.98999786
C    10.65000057   4.03999996  53.68999863
C    11.95000076   4.34999990  53.99000168
C    12.34000015   4.98000002  55.20999908
C    11.40999985   5.10999966  56.23000336
C    10.08999920   4.67999983  55.96000290
C     9.10000038   4.78999996  56.97000122
C     7.81000042   4.39000034  56.72999954
C     7.36999989   3.78999996  55.52000046
C     8.30000019   3.75999975  54.51000214
C     9.63999939   4.21999979  54.66999817
C    13.78000069   5.19999981  55.22999573
C    14.50000000   4.67999983  54.13000107
C    15.86999989   4.48000002  54.15000153
C     5.91000032   3.52999973  55.19000244
H     5.44831705   4.13373947  54.40869141
H    10.32999992   3.53999996  52.77999878
H    11.84999943   5.44000053  57.16999817
H     9.47000027   5.17000008  57.93000031
H     7.09000015   4.78999996  57.43000031
H     8.03999996   3.28999996  53.55999756
H    16.43000031   4.42000008  53.22000122
H     5.22000027   3.60000014  56.04000092
H     6.00000000   2.47000003  54.91000366
S    17.78000069   6.26999950  51.90000153
C    20.45000076   6.01000023  51.22000122
C    19.13999939   5.73999977  50.90000153
C    18.75000000   5.23000002  49.61999893
C    19.75000000   4.98000002  48.69999695
C    21.11999893   5.23000002  48.99000168
C    22.17000008   5.12000036  48.04000092
C    23.44000053   5.56999969  48.34000015
C    23.80000114   6.15000010  49.58000183
C    22.80999947   6.19999981  50.54000092
C    21.47000122   5.82999992  50.25000000
C    17.29999924   5.15999985  49.58000183
C    16.61000061   5.60999966  50.73999786
C    15.22999954   5.66999960  50.83000183
C    25.23999977   6.54999971  49.84000397
H    25.68808746   5.90276194  50.59392929
H    20.65000153   6.54999971  52.14000320
H    19.50000000   4.78999996  47.65999603
H    21.88999939   4.69999981  47.08000183
H    24.14999962   5.46999979  47.52999878
H    23.00000000   6.44000006  51.59000015
H    14.70000076   6.09000015  51.69000244
H    25.76999855   6.52999973  48.88000107
H    25.22999954   7.60999966  50.11000061
S    14.00000000   4.44000006  47.25000000
C    11.31999969   4.32000017  47.98999786
C    12.61000061   4.65000010  48.34000015
C    13.01000023   5.26999998  49.55999756
C    12.00000000   5.79999971  50.34000015
C    10.67999935   5.31000042  50.15999603
C     9.65999985   5.50000000  51.12999725
C     8.40999985   4.97000027  50.93000031
C     8.05999947   4.26999998  49.75000000
C     8.98999977   4.17000008  48.73000336
C    10.31000042   4.63999987  48.94000244
C    14.46000004   5.29999971  49.72000122
C    15.13000011   4.88999987  48.54000092
C    16.51000023   4.78999996  48.47999954
C     6.63999987   3.84999990  49.41999817
H     6.23409367   4.43393469  48.59394836
H    11.06999969   3.74000025  47.11000061
H    12.28000069   6.34000015  51.24000168
H     9.92999935   5.96000004  52.08000183
H     7.59000015   5.00000000  51.63999939
H     8.78000069   3.54999995  47.87000275
H    17.06999969   4.61999989  47.56000137
H     6.02999973   4.01999998  50.31999969
H     6.57999992   2.77999997  49.22999954
