96

S    17.45000076   5.17000008  57.90999985
C    20.15000153   5.44000053  57.22999954
C    18.89999962   4.94999981  56.91999817
C    18.56999969   4.35999966  55.65000153
C    19.57999992   4.32999992  54.69999695
C    20.88999939   4.78999996  54.97000122
C    21.94000053   4.53999996  54.05000305
C    23.23999786   4.88000011  54.34000015
C    23.57000160   5.36000013  55.63999939
C    22.55000114   5.64000034  56.51000214
C    21.18000031   5.33999968  56.26999664
C    17.13999939   4.19999981  55.45000076
C    16.39999962   4.69000006  56.56000137
C    15.03000069   4.90999985  56.52000046
C    25.00000000   5.58000040  56.09000397
H    25.40537834   5.15328503  57.00743484
H    20.50000000   5.68000031  58.22999954
H    19.31999969   3.98000002  53.70999908
H    21.65999985   4.07999992  53.09999847
H    24.05999947   4.56999969  53.69999695
H    22.63000107   6.01000023  57.52999878
H    14.51000023   5.23999977  57.41000366
H    25.65999985   5.38999987  55.24000168
H    25.02000046   6.67000008  56.22000122
S    14.01000023   3.53999996  52.88000107
C    11.25000000   3.52999973  53.63999939
C    12.57999992   3.81000018  53.88999939
C    12.97999954   4.44999981  55.11000061
C    11.96000004   4.79999971  55.97000122
C    10.62999916   4.32999992  55.84999847
C     9.63999939   4.42000008  56.86999893
C     8.36000061   3.98000002  56.63999939
C     7.95000029   3.37000012  55.41999817
C     8.92000008   3.19000006  54.45999908
C    10.26000023   3.63000011  54.65000153
C    14.42000008   4.53000021  55.31999969
C    15.11000061   4.05999994  54.16999817
C    16.46999931   3.81000018  54.27999878
C     6.48000002   3.17999983  55.15999603
H     6.10981846   3.80646133  54.34844589
H    11.03999996   3.12000012  52.64999771
H    12.15999985   5.28999996  56.91999817
H     9.94999981   4.99000025  57.74000168
H     7.59999990   4.13000011  57.39999771
H     8.73999977   2.93000007  53.43000031
H    17.09000015   3.48000002  53.44999695
H     5.98000002   3.30999994  56.12999725
H     6.34000015   2.13000011  54.86000061
S    13.73999977   1.59999990  49.78000259
C    11.10000038   1.25999999  50.61000061
C    12.43999958   1.00000000  50.83000183
C    12.96000004   0.34999999  52.00000000
C    12.06999969   0.00000000  52.98999786
C    10.69000053   0.28000000  52.80000305
C     9.71000004  -0.25999999  53.68999863
C     8.38999939  -0.32999998  53.31999969
C     7.88999987   0.48999998  52.28000259
C     8.76999950   1.05999994  51.38999939
C    10.15999985   0.83999997  51.59000015
C    14.40999985   0.48999998  52.11999893
C    14.96000099   1.18000007  51.00000000
C    16.29999924   1.51999998  51.04999924
C     6.43000031   0.45000002  51.86999893
H     6.21531820  -0.27276108  51.08283615
H    10.80999947   2.00000000  49.87999725
H    12.31999969  -0.56999999  53.87000275
H    10.13000011  -0.82999998  54.52000046
H     7.75000000  -1.03999996  53.83999634
H     8.56000042   1.50000000  50.40999985
H    16.82999992   2.03999996  50.26000214
H     5.84000015   0.37000000  52.80000305
H     6.15999985   1.43999994  51.49000168
S    17.59000015   0.04000000  54.50000000
C    20.20000076   0.48999998  53.94000244
C    18.90999985   0.75999999  53.55999756
C    18.51000023   1.38999999  52.34000397
C    19.54000092   1.88999999  51.56999969
C    20.88999939   1.75000000  51.97999954
C    21.94999886   2.38999987  51.26999664
C    23.25000000   2.17999983  51.65000153
C    23.64999962   1.35000002  52.72999573
C    22.63000107   0.79000002  53.47000122
C    21.25999832   0.93999994  53.11000061
C    17.06999969   1.22000003  52.18000031
C    16.44000053   0.56999999  53.26000214
C    15.08999920   0.19999999  53.29999924
C    25.09000015   1.02999997  53.06000137
H    25.51564598   1.58334017  53.89710236
H    20.38999939  -0.20999999  54.75000000
H    19.36000061   2.42000008  50.63999939
H    21.70999908   2.89999986  50.34000015
H    24.02000046   2.54999995  50.97999954
H    22.77000046  -0.02000000  54.19000244
H    14.61999989  -0.09000000  54.22999954
H    25.78000069   1.30999994  52.25000000
H    25.10999870  -0.06000000  53.09000015
