96

S    17.48999977   5.14999962  58.02000046
C    20.19000053   5.31000042  57.42000198
C    18.92000008   5.07999992  56.95999908
C    18.64999962   4.67000008  55.61000061
C    19.70999908   4.46999979  54.75999832
C    21.02999878   4.74000025  55.20000076
C    22.13999939   4.44000006  54.36000061
C    23.39999962   4.86000013  54.71000290
C    23.64000130   5.51000023  55.94999695
C    22.63999939   5.47999954  56.90000153
C    21.30000114   5.14999962  56.55000305
C    17.20999908   4.55000019  55.38000107
C    16.50000000   4.84000015  56.58000183
C    15.11999989   4.98000002  56.60999680
C    25.03000069   5.91000032  56.38999939
H    25.41444397   5.41164780  57.27991486
H    20.28000069   5.55999994  58.47000122
H    19.59000015   3.86000013  53.86000061
H    21.77000046   3.98999977  53.43999863
H    24.13999939   4.53000021  53.97999573
H    22.80999947   5.86999989  57.90000153
H    14.52999973   5.32000017  57.45999908
H    25.68000031   5.77000046  55.52000046
H    25.02000046   7.00000000  56.52999878
S    14.06000042   3.84999990  52.95999908
C    11.28000069   4.00000000  53.60000229
C    12.61000061   4.09000015  53.95000076
C    12.96000004   4.50000000  55.27999878
C    11.98999977   4.76999998  56.22000122
C    10.62000084   4.61999989  55.90999985
C     9.57999992   4.73000002  56.88999939
C     8.30999947   4.30000019  56.60999680
C     7.95000029   4.01999998  55.27000046
C     8.89000034   4.07999992  54.27000046
C    10.26999950   4.25000000  54.55999756
C    14.40999985   4.57999992  55.47000122
C    15.14000034   4.26999998  54.29999924
C    16.53000069   4.21999979  54.20999908
C     6.58999968   3.42999983  54.95999908
H     6.02647924   3.98638701  54.21101379
H    11.06999969   3.68000007  52.57999802
H    12.23000050   5.19000006  57.19999695
H     9.88000011   4.90999985  57.91999817
H     7.62000036   3.93000007  57.36000061
H     8.67000008   3.91999984  53.22000122
H    17.12000084   3.94000006  53.34000015
H     6.15000010   3.28000021  55.96000290
H     6.75000000   2.39999986  54.61000061
S    17.61000061   5.96000004  51.81999969
C    20.34000015   5.63000011  51.38999939
C    19.04999924   5.38000011  50.97999954
C    18.71999931   4.90999985  49.66999817
C    19.70999908   4.42999983  48.82999802
C    21.04999924   4.67999983  49.22000122
C    22.11999893   4.63000011  48.27999878
C    23.38999939   5.09999990  48.54999924
C    23.65999985   5.75999975  49.77000427
C    22.69000053   5.78000021  50.75000000
C    21.37000084   5.33999968  50.45999908
C    17.29999924   5.01999950  49.36999893
C    16.54999924   5.51000023  50.47999954
C    15.15999985   5.65000010  50.47000122
C    24.96999931   6.44999981  50.07999802
H    25.49705315   5.82323408  50.79935837
H    20.52999878   6.25000000  52.25999832
H    19.50000000   4.13999987  47.81000137
H    21.93000031   4.36999989  47.23999786
H    24.17000008   5.19000006  47.81000137
H    22.95000076   6.25999975  51.70000076
H    14.68999958   5.78000021  51.44000244
H    25.40999985   6.32000017  49.08000183
H    24.86000061   7.50999975  50.33000183
S    14.11999893   4.38000011  46.91999817
C    11.40999985   3.95000005  47.75000000
C    12.64999962   4.51999998  47.90999985
C    12.98999977   5.14999962  49.15000153
C    12.05999947   5.36000013  50.15999603
C    10.75000000   4.88000011  49.92000198
C     9.72000027   5.01999950  50.89000320
C     8.43000031   4.69000006  50.52999878
C     8.07999992   3.97000027  49.36000061
C     9.06000042   3.76999998  48.41999817
C    10.38000011   4.23999977  48.68000031
C    14.42000008   5.35000038  49.33000183
C    15.19999981   4.88999987  48.23999786
C    16.55999947   4.59999990  48.26000214
C     6.65000010   3.51999998  49.19000244
H     6.28617716   4.11923742  48.35534668
H    11.21999931   3.28999996  46.90999985
H    12.35999966   5.82999992  51.09000397
H     9.96999931   5.44000053  51.86000061
H     7.50000000   4.92999983  51.04000092
H     8.94999981   3.23000002  47.49000168
H    17.06999969   4.21000004  47.37999725
H     6.00000000   3.72000003  50.06000137
H     6.52999973   2.44000006  49.02999878
