96

S    17.38999939   5.07999992  57.97000122
C    20.09000015   5.00999975  57.18000031
C    18.76000023   4.80999994  56.88000107
C    18.40999985   4.41000032  55.54999924
C    19.40999985   4.17000008  54.62999725
C    20.78000069   4.28000021  54.98000336
C    21.84000015   4.17000008  54.03999710
C    23.15000153   4.42999983  54.38000107
C    23.44000053   4.92000008  55.68000031
C    22.49000168   5.10999966  56.65000153
C    21.15999985   4.74000025  56.29000092
C    16.95999908   4.33999968  55.43000031
C    16.28999901   4.72000027  56.62000275
C    14.91000080   4.81999969  56.68000031
C    24.82000160   5.47999954  55.97000122
H    25.28862953   4.89066601  56.75814819
H    20.30999947   5.40999985  58.16999817
H    19.22000122   4.05000019  53.56999969
H    21.54999924   4.00999975  53.01000214
H    23.97000122   4.21000004  53.70999908
H    22.67999840   5.73999977  57.50999832
H    14.37999916   5.17000008  57.56999969
H    25.36000061   5.51999998  55.00999832
H    24.73999977   6.53999996  56.24000168
S    13.60999966   3.50000000  53.22000122
C    10.90000057   3.45999980  53.95000076
C    12.20999908   3.75000000  54.27000046
C    12.65999985   4.39000034  55.47000122
C    11.59999943   4.69999981  56.31000137
C    10.24000072   4.44000006  56.04000092
C     9.21000004   4.71000004  56.97999954
C     7.88000011   4.46999979  56.72000122
C     7.48000050   3.84999990  55.51000214
C     8.46000004   3.48000002  54.61000061
C     9.84000015   3.75999975  54.82999802
C    14.11000061   4.46999979  55.59000015
C    14.78999996   4.09999990  54.40000153
C    16.17000008   3.98999977  54.33000183
C     6.07999992   3.30999994  55.37000275
H     5.55361986   3.72256780  54.50930023
H    10.67000008   2.84999990  53.08000183
H    11.96000004   5.19999981  57.21000290
H     9.35000038   5.21000004  57.93000031
H     7.11000013   4.73000002  57.43999863
H     8.22000027   2.87999988  53.74000168
H    16.61999893   3.45000005  53.50000000
H     5.42000008   3.56999993  56.20999908
H     6.05999994   2.23000002  55.19000244
S    14.15999985   1.59999990  50.24000168
C    11.46999931   1.11000001  50.93000031
C    12.81000042   0.94999999  51.18999863
C    13.25000000   0.34999999  52.41000366
C    12.27000046  -0.03000000  53.30999756
C    10.86999989   0.05000000  53.11000061
C     9.88000011  -0.55000001  53.94000244
C     8.55000019  -0.46000001  53.61000061
C     8.17000008   0.19000000  52.41000366
C     9.11999989   0.62000000  51.51000214
C    10.50000000   0.61000001  51.84000015
C    14.68000031   0.45000002  52.63999939
C    15.26999950   1.13999999  51.53999710
C    16.57999992   1.58999991  51.58000183
C     6.71000004   0.51999998  52.21000290
H     6.36069155   0.18494919  51.23336411
H    11.03999996   1.61000001  50.06999969
H    12.53000069  -0.63000000  54.18000031
H    10.21999931  -0.99000001  54.87999725
H     7.85000038  -0.57999998  54.43000031
H     8.85000038   0.99000001  50.52000046
H    16.97999954   2.29999995  50.84999847
H     6.19999981  -0.01000000  53.02999878
H     6.53999996   1.61000001  52.29000092
S    17.94999886  -0.02000000  54.99000168
C    20.59999847   0.50000000  54.34999847
C    19.27999878   0.59999996  54.00000000
C    18.78999901   1.16999996  52.77000046
C    19.71999931   1.72999990  51.90999985
C    21.09999847   1.65000010  52.23999786
C    22.06999969   2.05999994  51.27999878
C    23.40999985   1.81999993  51.45000076
C    23.84000015   1.08000004  52.58999634
C    22.93999863   0.68000007  53.54999924
C    21.54000092   0.83999997  53.34000015
C    17.34000015   1.13000000  52.65999603
C    16.77000046   0.44000000  53.75000000
C    15.44999981  -0.01000000  53.70999908
C    25.30999947   0.78000003  52.75000000
H    25.76774025   1.25919712  53.61541367
H    20.93000031  -0.07000000  55.20999908
H    19.42000008   2.27999997  51.03000259
H    21.64999962   2.52999997  50.38999939
H    23.95000076   2.25999999  50.61000061
H    23.31000137   0.16000001  54.43000031
H    15.05000019  -0.63000000  54.51000214
H    25.92000008   1.19000006  51.93999863
H    25.55999947  -0.28999999  52.81000137
