96

S    17.14999962   5.50000000  57.90999985
C    19.85999870   5.61999989  57.25000000
C    18.59000015   5.18000031  56.93000031
C    18.29000092   4.74000025  55.59999847
C    19.31999969   4.59999990  54.68999863
C    20.65000153   4.82999992  55.11000061
C    21.73000145   4.73000002  54.19000244
C    23.05000114   4.97000027  54.52000046
C    23.31000137   5.73999977  55.68000031
C    22.27999878   5.95000029  56.56000137
C    20.94000053   5.51999998  56.33999634
C    16.84999847   4.72000027  55.37000275
C    16.11999893   5.09999990  56.52000046
C    14.73999977   5.23999977  56.53999710
C    24.70999908   6.17000008  56.06999969
H    25.06616974   5.56450844  56.90343857
H    19.93000031   6.14000034  58.20000076
H    19.17000008   4.53999996  53.61999893
H    21.54999924   4.42999983  53.15999985
H    23.88999939   4.80999994  53.85000229
H    22.43999863   6.34000015  57.56000137
H    14.19999981   5.66999960  57.37999725
H    25.25000000   6.03999996  55.13000107
H    24.70000076   7.25000000  56.27999878
S    13.61999989   3.98000002  52.95000076
C    10.90000057   4.02999973  53.57999802
C    12.18999958   4.34999990  53.93000031
C    12.61000061   4.85000038  55.20999908
C    11.64000034   5.19000006  56.12999725
C    10.27999973   4.92000008  55.84000015
C     9.26000023   5.12000036  56.81999969
C     7.97999954   4.69000006  56.59999847
C     7.63999987   4.02999973  55.38999939
C     8.63000011   3.75999975  54.47000122
C     9.96999931   4.19000006  54.64000320
C    14.06000042   4.85000038  55.38000107
C    14.77000046   4.44000006  54.22999954
C    16.15999985   4.42999983  54.19000244
C     6.23000050   3.55999994  55.15999603
H     5.71974277   4.08443117  54.35209274
H    10.59999943   3.56999993  52.63999939
H    11.90000057   5.61999989  57.09999847
H     9.63000011   5.53999996  57.76000214
H     7.22000027   4.78999996  57.36999893
H     8.32999992   3.31999993  53.52000427
H    16.72999954   3.95000005  53.40000153
H     5.58000040   3.58999991  56.04000092
H     6.25999975   2.48000002  54.95999908
S    17.36999893   6.17000008  51.77000046
C    20.05000114   6.00000000  51.12999725
C    18.75000000   5.86000013  50.70000076
C    18.30999947   5.44000053  49.40000153
C    19.34999847   5.10999966  48.54000092
C    20.69000053   5.38999987  48.88000107
C    21.71999931   5.17000008  47.91999817
C    23.02000046   5.51000023  48.20000076
C    23.42000008   5.95000029  49.47999954
C    22.47999954   6.01000023  50.47999954
C    21.09000015   5.82999992  50.19000244
C    16.87000084   5.36999989  49.26000214
C    16.26000023   5.92000008  50.40999985
C    14.86999989   6.05000019  50.44000244
C    24.84000015   6.44000006  49.66999817
H    25.31048775   5.95525503  50.52542877
H    20.26000023   6.24000025  52.16999817
H    19.13999939   4.76000023  47.52999878
H    21.47000122   4.79999971  46.93000031
H    23.74000168   5.53999996  47.38999939
H    22.78000069   6.19999981  51.50000000
H    14.40999985   6.23000050  51.39999771
H    25.50000000   6.32999992  48.80000305
H    24.77999878   7.50000000  49.93999863
S    13.59000015   4.40000010  47.05999756
C    10.92000008   4.61999989  47.77000046
C    12.23000050   4.94000006  48.04999924
C    12.67000008   5.42000008  49.33000183
C    11.71000004   5.51999998  50.31999969
C    10.32999992   5.31000042  50.07999802
C     9.30999947   5.42000008  51.06999969
C     8.02999973   5.09000015  50.70999908
C     7.65999985   4.80999994  49.36999893
C     8.59000015   4.77999973  48.34999847
C     9.94000053   4.90000010  48.75999832
C    14.11999893   5.55999994  49.36999893
C    14.77000046   4.90999985  48.27999878
C    16.14999962   4.77999973  48.20999908
C     6.17000008   4.65999985  49.15000153
H     5.83596849   5.17170763  48.24740601
H    10.62999916   4.11000013  46.84999847
H    11.98999977   5.79999971  51.32999802
H     9.50000000   5.84000015  52.05999756
H     7.26999998   5.07999992  51.49000168
H     8.26000023   4.53999996  47.35000229
H    16.56999969   4.21999979  47.37999725
H     5.66999960   4.86999989  50.10000229
H     6.10000038   3.61000013  48.85000229
