96

S    17.30999947   5.51000023  57.97999954
C    20.00999832   5.46999979  57.30999756
C    18.71000099   5.25000000  56.91999817
C    18.36000061   4.69999981  55.63999939
C    19.37999916   4.61000013  54.71000290
C    20.72000122   4.88000011  55.06000137
C    21.81999969   4.53000021  54.22000122
C    23.09999847   4.76999998  54.65000153
C    23.45999908   5.28999996  55.91999817
C    22.40999985   5.59999990  56.75000000
C    21.04999924   5.40999985  56.35000229
C    16.92000008   4.65999985  55.40000153
C    16.28999901   5.07999992  56.59999847
C    14.91000080   5.15999985  56.72000122
C    24.84999847   5.59000015  56.43000031
H    25.26296425   4.83527184  57.09928513
H    20.31999969   5.75999975  58.30999756
H    19.07999992   4.23999977  53.73000336
H    21.63000107   4.05999994  53.25000000
H    23.92999840   4.55000019  53.99000168
H    22.63000107   5.93999958  57.76000214
H    14.47999954   5.60999966  57.60000229
H    25.58000183   5.55999994  55.61000061
H    24.86999893   6.53999996  56.98999786
S    13.71000099   4.09000015  53.06000137
C    11.02000046   4.13000011  53.77999878
C    12.32999992   4.32000017  54.15999985
C    12.71999931   4.74000025  55.47000122
C    11.77999973   4.94999981  56.45999908
C    10.40999985   4.82999992  56.11000061
C     9.39000034   4.92000008  57.09000015
C     8.06999969   4.63999987  56.81000137
C     7.72000027   4.15999985  55.52000046
C     8.69999981   3.97000027  54.56999969
C    10.06000042   4.32999992  54.80999756
C    14.17000008   4.76999998  55.59000015
C    14.82999992   4.33999968  54.40999985
C    16.21000099   4.28000021  54.25000000
C     6.32000017   3.75000000  55.11000061
H     5.80933380   4.43798113  54.43620300
H    10.86999989   3.65999985  52.81000137
H    12.05999947   5.09999990  57.50000000
H     9.63999939   5.19000006  58.11000061
H     7.36000013   4.76999998  57.62000275
H     8.55000019   3.58999991  53.56999969
H    16.65999985   4.07000017  53.29000092
H     5.75000000   3.65000010  56.04000092
H     6.35999966   2.76999998  54.62999725
S    14.04999924   1.85000002  50.17000198
C    11.43000031   1.63000000  50.84999847
C    12.71999931   1.29999995  51.18999863
C    13.09999943   0.71999997  52.44999695
C    12.13999939   0.27000001  53.33000183
C    10.78999996   0.56000000  53.02000046
C     9.70000076   0.11000000  53.81000137
C     8.36999989   0.37000000  53.54999924
C     8.05000019   0.99000001  52.30999756
C     9.06999969   1.36999989  51.45999908
C    10.44000053   1.18000007  51.77000046
C    14.52999973   0.90999997  52.64999771
C    15.11999989   1.61000001  51.56999969
C    16.47999954   1.88999999  51.53999710
C     6.61000013   1.36000013  52.02999878
H     6.19092464   0.84858626  51.16343689
H    11.21000099   2.21000004  49.94999695
H    12.38000011  -0.41000003  54.15000153
H     9.98000050  -0.39000002  54.72999954
H     7.64999962   0.25000000  54.34999847
H     8.73999977   1.80999994  50.52000046
H    16.93000031   2.39999986  50.68999863
H     5.93999958   1.22000003  52.88000107
H     6.44999981   2.44000006  51.90999985
S    17.93000031   0.45000002  54.91000366
C    20.56999969   0.90000004  54.19000244
C    19.23999977   1.14999998  53.94000244
C    18.78000069   1.66999996  52.69000244
C    19.63999939   2.23000002  51.77000046
C    21.02000046   2.06999993  52.04000092
C    22.04000092   2.54999995  51.16000366
C    23.38000107   2.51999998  51.47999573
C    23.78999901   1.65999997  52.52999878
C    22.85000038   1.10000002  53.36999893
C    21.47000122   1.43999994  53.25000000
C    17.34000015   1.47000003  52.56999969
C    16.72000122   0.83999997  53.67000198
C    15.36000061   0.56000000  53.72000122
C    25.23999977   1.36000013  52.84000015
H    25.61743546   1.83713794  53.74442291
H    20.85000038   0.24000001  55.01999664
H    19.27000046   2.75000000  50.89000320
H    21.68999863   2.87999988  50.19000244
H    24.17000008   2.93000007  50.84999847
H    23.16999817   0.41000003  54.13999939
H    14.92000008  -0.09000000  54.47000122
H    25.79999924   1.66999996  51.95000076
H    25.38000107   0.27000001  52.90000153
