96

S    17.53000069   5.17000008  57.80000305
C    20.20000076   5.50000000  57.01000214
C    18.90999985   5.15999985  56.69000244
C    18.54999924   4.67999983  55.38999939
C    19.56999969   4.51999998  54.47000122
C    20.90999985   4.88999987  54.75000000
C    21.90000153   4.92000008  53.72000122
C    23.19000053   5.22000027  54.09000015
C    23.46999931   5.86000013  55.33000183
C    22.50000000   6.00000000  56.30000305
C    21.24000168   5.40000010  56.04999924
C    17.11000061   4.46000004  55.27000046
C    16.43000031   4.73000002  56.47999573
C    15.06000042   4.98000002  56.52000046
C    24.86000061   6.28000021  55.73999786
H    25.20908546   5.62457609  56.53790665
H    20.34000015   5.96000004  57.98999786
H    19.31999969   4.15000010  53.47999954
H    21.61000061   4.63000011  52.71999741
H    23.90000153   5.14999962  53.27999878
H    22.70000076   6.43000031  57.28000259
H    14.63000107   5.19999981  57.49000168
H    25.40999985   6.25999975  54.79000092
H    24.82000160   7.34000015  56.04000092
S    13.81000042   3.60000014  53.02999878
C    11.10000038   3.78999996  53.81999969
C    12.43999958   3.98999977  54.08000183
C    12.84000015   4.44999981  55.38000107
C    11.84999943   4.71000004  56.31000137
C    10.50000000   4.34999990  56.09000397
C     9.50000000   4.51000023  57.09000015
C     8.18000031   4.11999989  56.95000076
C     7.86000013   3.56999993  55.68000031
C     8.71999931   3.50000000  54.61000061
C    10.07999992   3.88999987  54.79000092
C    14.28999996   4.56999969  55.43000031
C    14.96999931   4.07000017  54.29000092
C    16.35000038   4.07000017  54.15999985
C     6.44999981   3.19999981  55.30000305
H     6.00956869   3.73988342  54.46176147
H    10.85000038   3.40000010  52.83000183
H    12.15000057   5.10999966  57.27000427
H     9.90999985   4.75000000  58.06999969
H     7.44000006   4.26999998  57.71999741
H     8.45000076   3.17999983  53.61000061
H    16.68000031   3.86999989  53.13999939
H     5.77000046   3.35999990  56.14999771
H     6.48999977   2.11999989  55.13000107
S    14.52999973   1.56000006  50.01999664
C    11.87000084   1.36000013  50.77000046
C    13.15999985   0.93999994  50.97000122
C    13.59000015   0.34999999  52.19999695
C    12.64999962  -0.14000000  53.09000015
C    11.28000069   0.13000000  52.88000107
C    10.25000000  -0.39999998  53.69999695
C     8.92000008  -0.14999999  53.43999863
C     8.57999992   0.68000007  52.32999802
C     9.55000019   1.16999996  51.49000168
C    10.93000031   0.94999999  51.75000000
C    15.03000069   0.50999999  52.36000061
C    15.67999935   1.21000004  51.31999969
C    17.02000046   1.58999991  51.42000198
C     7.11999989   1.00000000  52.11000061
H     6.59294510   0.37323201  51.39064407
H    11.59000015   1.88999999  49.86000061
H    12.93000031  -0.71999997  53.96999741
H    10.54999924  -1.01999998  54.54000092
H     8.19999981  -0.62000000  54.09999847
H     9.22999954   1.63000000  50.56000137
H    17.39999962   2.19000006  50.59999847
H     6.67999983   1.05999994  53.11000061
H     6.97000027   2.03999996  51.77000046
S    18.22999954  -0.09000000  54.86000061
C    20.94000053   0.34999999  54.22999954
C    19.61000061   0.51999998  53.92000198
C    19.17000008   1.30999994  52.81000137
C    20.10999870   2.07999992  52.15000153
C    21.50000000   1.85000002  52.32999802
C    22.43999863   2.33999991  51.38000107
C    23.75999832   2.00999999  51.62000275
C    24.20000076   1.36000013  52.78999710
C    23.28000069   0.99000001  53.75000000
C    21.88999939   1.08000004  53.47999954
C    17.77000046   1.11000001  52.50000000
C    17.14999962   0.34999999  53.53000259
C    15.78999996   0.08000001  53.46000290
C    25.68000031   1.19000006  53.04000092
H    26.03684998   1.58967245  53.98921967
H    21.37000084  -0.09000000  55.13000107
H    19.80999947   2.70000005  51.31000137
H    22.11999893   2.82999992  50.47000122
H    24.47000122   2.40999985  50.90000153
H    23.59000015   0.43000001  54.62999725
H    15.27999973  -0.52999997  54.20000076
H    26.18000031   1.67999995  52.18999863
H    25.79999924   0.11000000  52.85999680
