96

S    17.20999908   5.07999992  57.98999786
C    19.92000008   5.27999973  57.35000229
C    18.64999962   4.90999985  56.95999908
C    18.26000023   4.59000015  55.61999893
C    19.30999947   4.63000011  54.72000122
C    20.68000031   4.79999971  55.02999878
C    21.80000114   4.77999973  54.15999985
C    23.09000015   5.01999950  54.58000183
C    23.31000137   5.46000004  55.90999985
C    22.27999878   5.46000004  56.83000183
C    20.95999908   5.19000006  56.38999939
C    16.81999969   4.51000023  55.41999817
C    16.13999939   4.94000006  56.58000183
C    14.75999928   5.07000017  56.63999939
C    24.65999985   5.98000002  56.32999802
H    25.08815575   5.50902939  57.21485519
H    20.22000122   5.42999983  58.37999725
H    19.06999969   4.57999992  53.66000366
H    21.52000046   4.72000027  53.11000061
H    23.88999939   5.13000011  53.86000061
H    22.43000031   5.65999985  57.88999939
H    14.32000065   5.19000006  57.63000107
H    25.26000023   5.69000006  55.45999908
H    24.56000137   7.05999947  56.50000000
S    13.53000069   3.89999986  53.06000137
C    10.84000015   3.88000011  53.70999908
C    12.10999966   4.26000023  54.06999969
C    12.53000069   4.69999981  55.37000275
C    11.54999924   4.81999969  56.33999634
C    10.21999931   4.48999977  55.97999954
C     9.22999954   4.44000006  57.00000000
C     7.90999985   4.15000010  56.72000122
C     7.55999994   3.68999982  55.43000031
C     8.47999954   3.63000011  54.40999985
C     9.81999969   4.00000000  54.68999863
C    13.96999931   4.86999989  55.50000000
C    14.63999939   4.35999966  54.36999893
C    16.03000069   4.25000000  54.29000092
C     6.11999989   3.25999999  55.19000244
H     5.67984009   3.77825284  54.33807755
H    10.57000065   3.50000000  52.72999573
H    11.75000000   5.03999996  57.38999939
H     9.59999943   4.69000006  57.98999786
H     7.13999987   4.40000010  57.44999695
H     8.18000031   3.38000011  53.40000153
H    16.60000038   3.88000011  53.44999695
H     5.63000011   3.51000023  56.13999939
H     6.01000023   2.17999983  55.06000137
S    13.94999981   1.85000002  50.14999771
C    11.26999950   1.16999996  50.77000046
C    12.60000038   1.19999993  51.10000229
C    13.07999992   0.64000005  52.32999802
C    12.15999985   0.11000000  53.20999908
C    10.77999973   0.17999999  52.90999985
C     9.86999989  -0.46999997  53.77999878
C     8.51000023  -0.31000000  53.60000229
C     8.02999973   0.34999999  52.43999863
C     8.86999989   0.93000001  51.52000046
C    10.27999973   0.75999999  51.69000244
C    14.52999973   0.76999998  52.47000122
C    15.14000034   1.50000000  51.42000198
C    16.46000099   1.94999993  51.49000168
C     6.54999971   0.59999996  52.30999756
H     6.17941475   0.36482123  51.31227112
H    11.02000046   1.65999997  49.82999802
H    12.51000023  -0.41000003  54.09999847
H    10.31000042  -1.00000000  54.61999893
H     7.88000011  -0.63000000  54.43000031
H     8.55000019   1.59999990  50.72999954
H    17.02000046   2.43000007  50.70000076
H     6.15000010  -0.03000000  53.11999893
H     6.44999981   1.65999997  52.58999634
S    17.85000038   0.34000003  54.79999924
C    20.51000214   0.79000002  54.08000183
C    19.18000031   1.07000005  53.88000107
C    18.67000008   1.84000003  52.77999878
C    19.59000015   2.46000004  51.97000122
C    20.97999954   2.24000001  52.11000061
C    21.97000122   2.73000002  51.19999695
C    23.29999924   2.45000005  51.38999939
C    23.77000046   1.61000001  52.43000031
C    22.82999992   1.19000006  53.34000015
C    21.42999840   1.41000009  53.20000076
C    17.23999977   1.62000000  52.61000061
C    16.64999962   0.74000001  53.54999924
C    15.29999924   0.39999998  53.56999969
C    25.26000023   1.43999994  52.67000198
H    25.59394646   1.70999908  53.67184067
H    20.81000137  -0.09999999  54.61999893
H    19.42000008   2.86999989  50.97000122
H    21.60000038   3.26999998  50.34000015
H    24.05999947   2.98000002  50.81999969
H    23.15999985   0.76999998  54.29000092
H    14.86999989  -0.24000001  54.33000183
H    25.79999924   2.09999990  51.98999786
H    25.43000031   0.41000003  52.32999802
