96

S    17.38000107   5.46000004  57.81000137
C    20.10999870   5.19000006  57.23999786
C    18.81000137   4.85000038  56.95000076
C    18.47999954   4.35999966  55.63999939
C    19.50000000   4.13999987  54.72999954
C    20.85000038   4.44000006  55.04000092
C    21.90999985   4.32999992  54.09000015
C    23.21000099   4.67000008  54.36000061
C    23.51000023   5.27999973  55.61000061
C    22.50999832   5.40999985  56.55000305
C    21.15999985   5.03999996  56.31000137
C    17.04000092   4.25000000  55.52000046
C    16.29999924   4.94999981  56.50000000
C    14.92000008   5.15999985  56.49000168
C    24.89000130   5.82999992  55.87999725
H    25.44606590   5.23828888  56.60716248
H    20.38999939   5.75999975  58.11999893
H    19.25000000   3.84999990  53.70999908
H    21.70999908   3.91000009  53.09999847
H    24.05999947   4.55999994  53.68999863
H    22.70000076   5.92000008  57.49000168
H    14.47000027   5.51000023  57.42000198
H    25.45999908   5.93999958  54.94999695
H    24.71999931   6.84000015  56.26999664
S    13.82999992   3.51000023  53.08000183
C    11.09000015   3.54999995  53.76999664
C    12.39999962   3.82999992  54.09000015
C    12.74000072   4.35999966  55.37000275
C    11.73999977   4.59999990  56.29000092
C    10.39000034   4.32999992  55.96000290
C     9.35999966   4.56999969  56.91999817
C     8.05000019   4.21000004  56.66999817
C     7.76000023   3.56999993  55.44000244
C     8.69000053   3.35999990  54.45000076
C    10.03999901   3.75000000  54.69999695
C    14.18000031   4.56999969  55.47000122
C    14.92000008   4.00999975  54.38999939
C    16.28999901   3.81999993  54.40999985
C     6.35999966   3.08999991  55.13999939
H     5.83226871   3.78888702  54.49103165
H    10.82999992   3.07000017  52.83000183
H    12.02000046   4.97000027  57.27000427
H     9.59999943   5.10999966  57.83000183
H     7.22000027   4.59000015  57.25999832
H     8.46000004   3.05999994  53.43000031
H    16.87000084   3.48000002  53.54999924
H     5.82000017   3.00999999  56.09000397
H     6.28999996   2.13000011  54.59999847
S    17.36999893   5.71000004  52.01000214
C    20.06000137   5.63000011  51.38000107
C    18.77000046   5.36000013  50.97999954
C    18.42000008   4.82999992  49.69999695
C    19.44000053   4.55999994  48.80000305
C    20.76999855   4.90999985  49.13999939
C    21.80999947   4.75000000  48.18000031
C    23.06999969   5.27999973  48.34000015
C    23.36000061   5.84999990  49.59999847
C    22.42000198   5.96000004  50.59999847
C    21.09000015   5.51000023  50.40000153
C    16.97000122   4.79999971  49.54000092
C    16.28000069   5.23000002  50.70000076
C    14.91000080   5.44000053  50.70999908
C    24.77000046   6.32000017  49.86000061
H    25.36139488   5.52197123  50.30889130
H    20.30999947   6.19000006  52.28000259
H    19.22000122   4.09000015  47.84999847
H    21.40999985   4.40000010  47.23999786
H    23.75000000   5.25000000  47.48000336
H    22.70999908   6.30000019  51.59999847
H    14.47000027   5.84999990  51.60999680
H    25.26000023   6.75000000  48.96999741
H    24.69000053   7.26999998  50.40999985
S    13.76000023   4.11999989  47.14000320
C    11.07999992   3.84000015  47.90000153
C    12.38000011   4.13999987  48.26000214
C    12.75000000   4.63000011  49.54999924
C    11.77999973   4.94999981  50.47999954
C    10.44000053   4.61000013  50.21999741
C     9.42000008   4.88000011  51.18000031
C     8.11999989   4.55999994  50.87999725
C     7.76000023   3.97000027  49.64000320
C     8.76000023   3.72000003  48.74000168
C    10.11999989   4.09000015  48.90999603
C    14.18000031   4.90999985  49.64000320
C    14.85999966   4.63999987  48.43000031
C    16.25000000   4.53999996  48.36000061
C     6.28999996   3.74000025  49.34999847
H     5.97771406   4.21552658  48.42023849
H    10.73999977   3.49000001  46.93000031
H    12.06999969   5.40000010  51.43000031
H     9.70000076   5.44000053  52.08000183
H     7.32999992   4.75000000  51.59999847
H     8.48999977   3.12000012  47.87000275
H    16.88999939   4.40000010  47.49000168
H     5.69999981   4.13000011  50.18000031
H     6.24000025   2.64999986  49.36999893
