96

S    16.94000053   5.55999994  57.94000244
C    19.70000076   5.42000008  57.37999725
C    18.39999962   5.14999962  57.02000046
C    18.04000092   4.75000000  55.68999863
C    19.11000061   4.46000004  54.86000061
C    20.46999931   4.74000025  55.13999939
C    21.54000092   4.57999992  54.22000122
C    22.84000015   4.88999987  54.54999924
C    23.13999939   5.46000004  55.81999969
C    22.11999893   5.58000040  56.72000122
C    20.76999855   5.21000004  56.46999741
C    16.61000061   4.69000006  55.44000244
C    15.88999939   5.07999992  56.59999847
C    14.50000000   5.07000017  56.65999985
C    24.56000137   5.82999992  56.18000031
H    24.94375610   5.11934090  56.91197968
H    19.85000038   6.10000038  58.22000122
H    18.78999901   3.91999984  53.96999741
H    21.22999954   4.26000023  53.22999954
H    23.59999847   4.63999987  53.81999969
H    22.43999863   5.91000032  57.70999908
H    14.07999992   5.38999987  57.61000061
H    25.29000092   5.95000029  55.37000275
H    24.43000031   6.77999973  56.72000122
S    13.48000050   3.71000004  53.06999969
C    10.78999996   3.63000011  53.73000336
C    12.06999969   3.95000005  54.12000275
C    12.31999969   4.50000000  55.41999817
C    11.26000023   4.67999983  56.29000092
C     9.94000053   4.32999992  55.91999817
C     8.84000015   4.44999981  56.81999969
C     7.53999996   4.23000002  56.43000031
C     7.32999992   3.61000013  55.15999603
C     8.36000061   3.42000008  54.27000046
C     9.70000076   3.75000000  54.62999725
C    13.76000023   4.67999983  55.54000092
C    14.50000000   4.30000019  54.40000153
C    15.88000107   4.18000031  54.36000061
C     6.00000000   2.94999981  54.87999725
H     5.49323940   3.52099752  54.10201645
H    10.57999992   3.25000000  52.72999573
H    11.32999992   5.23000002  57.22999954
H     8.97000027   4.79999971  57.84999847
H     6.63000011   4.44000006  56.97000122
H     8.10999966   2.79999995  53.41999817
H    16.36999893   3.61000013  53.56999969
H     5.40000010   2.87999988  55.79999924
H     6.14000034   1.90999997  54.58000183
S    17.57999992   5.92999983  51.95999908
C    20.28000069   5.82999992  51.31999969
C    18.98999977   5.55000019  50.94999695
C    18.67000008   5.26000023  49.58000183
C    19.69000053   5.15999985  48.64999771
C    21.04000092   5.44000053  48.97999573
C    22.14999962   5.32000017  48.09000015
C    23.43000031   5.55000019  48.53000259
C    23.62999916   6.02999973  49.85000229
C    22.60999870   6.17999983  50.76000214
C    21.30000114   5.84000015  50.34000015
C    17.22999954   5.19000006  49.43999863
C    16.51000023   5.59999990  50.59000015
C    15.11999989   5.71000004  50.59000015
C    24.92000198   6.60000038  50.40999985
H    25.33867836   5.98263073  51.20477295
H    20.50000000   6.11999989  52.35000229
H    19.50000000   4.72000027  47.68000031
H    21.96000099   4.98000002  47.06999969
H    24.26000214   5.28999996  47.88000107
H    22.77000046   6.51000023  51.77999878
H    14.57999992   6.03999996  51.46999741
H    25.71000099   6.80000019  49.66999817
H    24.65999985   7.57999992  50.81999969
S    14.09999943   3.98999977  47.18999863
C    11.42000008   3.71000004  47.91999817
C    12.64000034   4.30000019  48.15000153
C    12.96000004   5.00999975  49.34999847
C    11.95000076   5.26999998  50.26000214
C    10.65999985   4.73000002  50.07999802
C     9.59000015   5.00000000  50.98999786
C     8.28999996   4.63999987  50.72999954
C     8.10000038   3.81999993  49.58000183
C     9.09000015   3.45000005  48.69999695
C    10.39999962   3.98000002  48.87000275
C    14.37999916   5.26999998  49.47999954
C    15.14000034   4.74000025  48.40999985
C    16.53000069   4.71000004  48.31999969
C     6.72999954   3.23000002  49.34000015
H     6.20969009   3.92137074  48.67713928
H    11.32999992   3.07999992  47.04000092
H    12.17000008   5.88999987  51.12999725
H     9.89999962   5.46999979  51.91999817
H     7.50999975   4.98000002  51.38999939
H     8.86999989   2.84999990  47.83000183
H    17.05000114   4.30999994  47.44999695
H     6.15999985   3.07999992  50.27000046
H     6.78999996   2.28999996  48.76999664
