96

S    17.26000023   5.79999971  57.90000153
C    19.93000031   5.82999992  57.15000153
C    18.64999962   5.42999983  56.84999847
C    18.36000061   4.86999989  55.56999969
C    19.37000084   4.72000027  54.64000320
C    20.69000053   5.12000036  54.94999695
C    21.77999878   4.90000010  54.06999969
C    23.08000183   5.15999985  54.45000076
C    23.31999969   5.86000013  55.65999985
C    22.32999992   6.05999994  56.59000015
C    21.00000000   5.69999981  56.23000336
C    16.90999985   4.81999969  55.45000076
C    16.20000076   5.17000008  56.62000275
C    14.80999947   5.15999985  56.72999954
C    24.76000023   6.17000008  56.00999832
H    25.01684380   5.69912100  56.95889664
H    20.17999840   6.46000004  58.00000000
H    19.11000061   4.53000021  53.60000229
H    21.61000061   4.51999998  53.06999969
H    23.92999840   5.00000000  53.79000092
H    22.43999863   6.46000004  57.60000229
H    14.27999973   5.55000019  57.58999634
H    25.36999893   5.72000027  55.21999741
H    24.99000168   7.25000000  56.00999832
S    13.64999962   4.07000017  53.09000015
C    10.93000031   4.30000019  53.67000198
C    12.23000050   4.46000004  54.08000183
C    12.61999989   4.94999981  55.35999680
C    11.61000061   5.19999981  56.27999878
C    10.26999950   4.85000038  55.98999786
C     9.28999996   4.74000025  57.02000046
C     7.99000025   4.34999990  56.79000092
C     7.64999962   4.03999996  55.45000076
C     8.56000042   4.11999989  54.43000031
C     9.90999985   4.51000023  54.64000320
C    14.04999924   4.86000013  55.59000015
C    14.75000000   4.46999979  54.41999817
C    16.13999939   4.36999989  54.36999893
C     6.21999979   3.63999987  55.14999771
H     5.85800123   4.03039074  54.19886780
H    10.75000000   3.71000004  52.77999878
H    11.94000053   5.21000004  57.31999969
H     9.68000031   5.03000021  57.98999786
H     7.18999958   4.36999989  57.51999664
H     8.32999992   3.72000003  53.43999863
H    16.54000092   4.09999990  53.40000153
H     5.63000011   3.88999987  56.03000259
H     6.28999996   2.53999996  55.17000198
S    17.53999901   6.23000050  51.95999908
C    20.23999977   6.07999992  51.27999878
C    18.93000031   5.86999989  50.91999817
C    18.59000015   5.36000013  49.61999893
C    19.57999992   5.05000019  48.70999908
C    20.95000076   5.28999996  48.97999573
C    21.97000122   5.28999996  47.98999786
C    23.29000092   5.58000040  48.29000092
C    23.54999924   6.21999979  49.52999878
C    22.56000137   6.28999996  50.47999954
C    21.21000099   5.88999987  50.27000046
C    17.14999962   5.23000002  49.52000046
C    16.45000076   5.75000000  50.63999939
C    15.06999969   5.84999990  50.72000122
C    24.92000198   6.74000025  49.87999725
H    25.36706161   6.11553574  50.65348434
H    20.45000076   6.48000002  52.27000427
H    19.27999878   4.90999985  47.67000198
H    21.60000038   5.07000017  47.00000000
H    23.97000122   5.52999973  47.44999695
H    22.86000061   6.70000029  51.45000076
H    14.52000046   6.12999964  51.60999680
H    25.55000114   6.83000040  48.99000168
H    24.86999893   7.79999971  50.15999603
S    13.94000053   4.77999973  47.06999969
C    11.33999920   4.36999989  47.83000183
C    12.60000038   4.75000000  48.22999954
C    12.88000011   5.17000008  49.56999969
C    11.82999992   5.25000000  50.47000122
C    10.50000000   5.09000015  50.02999878
C     9.35999966   5.42000008  50.83000183
C     8.09000015   5.07999992  50.41999817
C     7.88000011   4.48999977  49.13999939
C     8.93999958   4.17000008  48.33000183
C    10.26000023   4.51999998  48.73000336
C    14.30999947   5.42999983  49.61000061
C    15.01000023   4.96000004  48.47999954
C    16.39000130   4.84000015  48.40999985
C     6.47000027   4.03999996  48.82999802
H     5.95648718   4.62483406  48.06686401
H    11.16000080   4.00999975  46.81999969
H    11.90999985   5.46999979  51.52999878
H     9.47000027   5.86000013  51.81000137
H     7.30999994   5.42000008  51.10000229
H     8.84000015   3.68999982  47.36000061
H    16.95000076   4.53999996  47.51999664
H     5.97000027   3.97000027  49.79999924
H     6.54999971   2.96000004  48.62999725
