96

S    16.98999977   5.03999996  58.02000046
C    19.71999931   4.99000025  57.30999756
C    18.39999962   4.82999992  56.97000122
C    18.00000000   4.32000017  55.68999863
C    18.98999977   4.01999998  54.77000427
C    20.32999992   4.35999966  55.04000092
C    21.35999870   4.28000021  54.06000137
C    22.67000008   4.59999990  54.34999847
C    23.05999947   4.97000027  55.65999985
C    22.10000038   5.05000019  56.65000153
C    20.75000000   4.71000004  56.37000275
C    16.54999924   4.30000019  55.54999924
C    15.84000015   4.69999981  56.70999908
C    14.45000076   4.76999998  56.73999786
C    24.51000023   5.28999996  55.93999863
H    24.89969635   4.73025513  56.79024887
H    20.03999901   5.22000027  58.33000183
H    18.73999977   3.54999995  53.81999969
H    21.18999863   3.98000002  53.02999878
H    23.34000015   4.81999969  53.52000427
H    22.27999878   5.47999954  57.63000107
H    13.82999992   4.92000008  57.61000061
H    25.12000084   5.01999950  55.07999802
H    24.67000008   6.35999966  56.07999802
S    13.35000038   3.61000013  53.08000183
C    10.59999943   3.77999997  53.77999878
C    11.92999935   4.03999996  54.05000305
C    12.30999947   4.50000000  55.34999847
C    11.31999969   4.55999994  56.31000137
C     9.94999981   4.38000011  55.98999786
C     8.89999962   4.42000008  56.95999908
C     7.59000015   4.09000015  56.68000031
C     7.20000029   3.93000007  55.33000183
C     8.14000034   3.93000007  54.33000183
C     9.52000046   4.05000019  54.65999985
C    13.75000000   4.56999969  55.54000092
C    14.44000053   4.03999996  54.41999817
C    15.82999992   3.98000002  54.40000153
C     5.79999971   3.45999980  55.01999664
H     5.24494028   4.00794315  54.25857162
H    10.34000015   3.28999996  52.84999847
H    11.63000011   4.76999998  57.32999802
H     9.17000008   4.72000027  57.97000122
H     6.97000027   4.07999992  57.56999969
H     7.99000025   3.51000023  53.34000015
H    16.27000046   3.73000002  53.43999863
H     5.19999981   3.33999991  55.93000031
H     5.95000029   2.42000008  54.69999695
S    14.21000004   1.52999997  50.27999878
C    11.50000000   1.10000002  50.86999893
C    12.81999969   1.05999994  51.27999878
C    13.23999977   0.39000002  52.47000122
C    12.28999996  -0.31000000  53.18999863
C    10.92000008  -0.08000001  52.90999985
C     9.90999985  -0.57999998  53.76999664
C     8.56000042  -0.39000002  53.57999802
C     8.13000011   0.28999999  52.41000366
C     9.07999992   0.79000002  51.53999710
C    10.47999954   0.67000002  51.76000214
C    14.68000031   0.46000001  52.68000031
C    15.31999969   1.13000000  51.59999847
C    16.68000031   1.42000008  51.65000153
C     6.69000053   0.64000005  52.09999847
H     6.27703476   0.31247574  51.14590836
H    11.32999992   1.56000006  49.89999771
H    12.64000034  -0.81000000  54.09000015
H    10.21999931  -1.05999994  54.69999695
H     7.73000002  -0.64000005  54.22000122
H     8.76000023   1.28000009  50.63000107
H    17.10000038   1.90999997  50.77000046
H     6.19999981   0.01000000  52.84999847
H     6.52999973   1.70000005  52.29999924
S    17.95999908  -0.35999998  55.00000000
C    20.65000153   0.24000001  54.43999863
C    19.31999969   0.44000000  54.16999817
C    18.85000038   1.07000005  52.97000122
C    19.77000046   1.53999996  52.04999924
C    21.14999962   1.31999993  52.25000000
C    22.17000008   1.70000005  51.32999802
C    23.50000000   1.39999998  51.51000214
C    23.92999840   0.85000002  52.74000168
C    22.96999931   0.48999998  53.67000198
C    21.57999992   0.69000000  53.47000122
C    17.42000008   0.96000004  52.75000000
C    16.80999947   0.17000002  53.75999832
C    15.44999981  -0.09000000  53.70999908
C    25.38999939   0.54000002  52.98999786
H    25.80270767   1.00251853  53.88657379
H    20.95999908  -0.14000000  55.40999985
H    19.40999985   1.87000012  51.06999969
H    21.84000015   2.16999984  50.40000153
H    24.20000076   1.75999999  50.77000046
H    23.36000061   0.01000000  54.55999756
H    14.88999939  -0.67000002  54.45000076
H    25.96999931   0.78000003  52.09000015
H    25.38000107  -0.55000001  53.13999939
