96

S    17.39999962   5.45000029  58.09000015
C    20.05000114   5.79999971  57.16999817
C    18.78999901   5.26000023  57.00000000
C    18.48999977   4.61999989  55.76000214
C    19.47999954   4.44999981  54.80999756
C    20.81000137   4.84000015  55.06999969
C    21.88999939   4.65000010  54.15000153
C    23.21000099   4.98000002  54.34999847
C    23.52000046   5.61999989  55.56999969
C    22.49000168   5.92000008  56.43000031
C    21.11999893   5.56999969  56.26999664
C    17.05000114   4.42000008  55.66999817
C    16.31999969   4.90000010  56.79000092
C    14.94999981   5.09999990  56.77999878
C    24.96000099   5.93999958  55.91999817
H    25.20861816   5.48538160  56.87896347
H    20.29000092   6.42000008  58.02999878
H    19.26000023   4.17000008  53.77999878
H    21.73000145   4.11999989  53.22000122
H    23.95999908   4.69000006  53.61999893
H    22.77000046   6.58999968  57.23999786
H    14.47000027   5.52999973  57.65999603
H    25.71000099   5.64000034  55.17000198
H    25.00000000   7.03000021  55.96000290
S    13.86000061   4.00999975  53.13999939
C    11.13000011   4.07000017  53.75999832
C    12.42000008   4.35999966  54.10999680
C    12.77999973   4.75000000  55.45000076
C    11.76000023   5.07999992  56.32999802
C    10.42000008   4.85000038  55.94999695
C     9.39999962   4.90999985  56.93999863
C     8.10999966   4.48999977  56.65999985
C     7.77999973   4.05000019  55.35999680
C     8.78000069   3.67000008  54.48999786
C    10.08999920   4.18000031  54.72000122
C    14.22000027   4.76999998  55.63000107
C    14.94999981   4.32999992  54.50000000
C    16.31999969   4.07999992  54.52000046
C     6.37000036   3.58999991  55.08999634
H     5.89650679   4.08469439  54.24195099
H    10.93999958   3.58000016  52.81000137
H    11.90000057   5.59999990  57.27000427
H     9.81999969   5.03000021  57.93000031
H     7.40000010   4.42999983  57.48000336
H     8.57999992   3.23000002  53.52000427
H    16.84999847   3.78999996  53.61999893
H     5.79999971   3.68999982  56.02000427
H     6.32000017   2.51999998  54.86999893
S    17.86999893   5.91000032  52.04999924
C    20.59000015   5.86999989  51.31000137
C    19.27000046   5.72000027  50.97000122
C    18.94000053   5.19999981  49.68000031
C    19.90999985   5.05000019  48.70999908
C    21.25000000   5.40999985  48.99000168
C    22.23999977   5.33999968  47.97000122
C    23.54999924   5.64000034  48.27000046
C    23.90000153   6.15999985  49.54999924
C    22.93999863   6.30999994  50.52000046
C    21.59000015   5.89999962  50.30000305
C    17.50000000   5.01999950  49.58000183
C    16.77999878   5.38000011  50.75000000
C    15.39999962   5.53999996  50.77000046
C    25.36000061   6.44000006  49.82999802
H    25.70117569   5.88559103  50.70425797
H    20.86999893   6.23000050  52.29999924
H    19.57999992   4.67000008  47.75000000
H    21.91999817   4.94999981  47.02000046
H    24.36000061   5.42999983  47.57999802
H    23.16999817   6.57999992  51.55000305
H    14.92000008   5.97000027  51.65000153
H    25.92000008   6.10000038  48.95999908
H    25.65999985   7.49000025  49.88999939
S    14.29999924   4.34999990  47.18999863
C    11.57999992   4.38000011  47.80000305
C    12.86999893   4.65999985  48.20000076
C    13.19000053   5.21000004  49.47999954
C    12.20999908   5.46999979  50.41999817
C    10.85999966   5.22000027  50.07999802
C     9.76000023   5.32999992  50.97000122
C     8.47999954   5.07999992  50.54000092
C     8.18000031   4.53999996  49.26000214
C     9.22999954   4.53000021  48.36999893
C    10.59000015   4.69000006  48.76999664
C    14.63999939   5.19000006  49.65000153
C    15.38000011   4.71000004  48.54999924
C    16.76000023   4.53000021  48.50000000
C     6.77999973   4.09000015  48.89999771
H     6.31184864   4.82060003  48.24033356
H    11.26999950   4.02999973  46.81999969
H    12.43999958   5.59000015  51.47999573
H     9.86999989   5.55000019  52.02999878
H     7.59999990   5.19000006  51.17000198
H     9.03999996   4.19000006  47.36000061
H    17.25000000   4.30000019  47.56000137
H     6.15000010   4.07999992  49.79000092
H     6.80000019   3.07999992  48.47000122
