96

S    16.95999908   5.17000008  57.90999985
C    19.69000053   5.29999971  57.18000031
C    18.40999985   4.86000013  56.93000031
C    18.02999878   4.32000017  55.65999985
C    19.05999947   4.13999987  54.75000000
C    20.36999893   4.63999987  54.93000031
C    21.45999908   4.28000021  54.09000015
C    22.75000000   4.67000008  54.31999969
C    23.01000214   5.50000000  55.45000076
C    22.03000069   5.68000031  56.38999939
C    20.65999985   5.35000038  56.14999771
C    16.60000038   4.19999981  55.44000244
C    15.90000057   4.72000027  56.56000137
C    14.52000046   4.65000010  56.70000076
C    24.47000122   5.84000015  55.65000153
H    24.93879700   5.21493816  56.41001892
H    19.90999985   5.69999981  58.15999985
H    18.84000015   3.40000010  53.97999573
H    21.22999954   3.68000007  53.20999908
H    23.54000092   4.50000000  53.60000229
H    22.30999947   6.12999964  57.34000397
H    13.97999954   5.13999987  57.50000000
H    25.00999832   5.82999992  54.69999695
H    24.37999916   6.85999966  56.05999756
S    13.31999969   3.53999996  53.11999893
C    10.60999966   3.55999994  53.81999969
C    11.92000008   3.82999992  54.15999985
C    12.30999947   4.18000031  55.50000000
C    11.28999901   4.42000008  56.39999771
C     9.92000008   4.25000000  56.07999802
C     8.85000038   4.48999977  56.98999786
C     7.53999996   4.21999979  56.66999817
C     7.21000004   3.68999982  55.40000153
C     8.22000027   3.48000002  54.47999954
C     9.57999992   3.75999975  54.77000427
C    13.76000023   4.28000021  55.59000015
C    14.47999954   3.88999987  54.41999817
C    15.85000038   3.74000025  54.34999847
C     5.75000000   3.42000008  55.11000061
H     5.37333488   3.81087923  54.16478348
H    10.44999981   3.16000009  52.81999969
H    11.61000061   4.69000006  57.39999771
H     9.07999992   4.92999983  57.95000076
H     6.75000000   4.48999977  57.36000061
H     8.10000038   3.08999991  53.47000122
H    16.38000107   3.44000006  53.43999863
H     5.13000011   3.74000025  55.96000290
H     5.55000019   2.33999991  55.10000229
S    17.60000038   5.40999985  51.95000076
C    20.26000023   5.73000002  51.16000366
C    19.00000000   5.26999998  50.87999725
C    18.75000000   4.61999989  49.61999893
C    19.78000069   4.48999977  48.70999908
C    21.11000061   4.86999989  49.02999878
C    22.21999931   4.53000021  48.20999908
C    23.51000023   4.84000015  48.55999756
C    23.80000114   5.50000000  49.78000259
C    22.72999954   5.69000006  50.63000107
C    21.35999870   5.47999954  50.30000305
C    17.30999947   4.55999994  49.47000122
C    16.54999924   4.84000015  50.63999939
C    15.17000008   5.00999975  50.68000031
C    25.20999908   5.88999987  50.17000198
H    25.52315140   5.43450928  51.10945129
H    20.48000145   6.14000034  52.15000153
H    19.69000053   3.88000011  47.81000137
H    22.06000137   3.86000013  47.36000061
H    24.28999901   4.59000015  47.84000015
H    22.82999992   6.06999969  51.65000153
H    14.65000057   5.28999996  51.59000015
H    25.95999908   5.64000034  49.40999985
H    25.26000023   6.98000002  50.27000046
S    14.13000011   4.13000011  46.98999786
C    11.39999962   4.13000011  47.63999939
C    12.69999981   4.39000034  48.01000214
C    13.02000046   4.80999994  49.34000015
C    12.00000000   5.05000019  50.24000168
C    10.65000057   4.84000015  49.87999725
C     9.59000015   4.90999985  50.84000015
C     8.31999969   4.51000023  50.50000000
C     8.03999996   3.93000007  49.23999786
C     9.02999973   3.89999986  48.27999878
C    10.36000061   4.30999994  48.57999802
C    14.47000027   4.79999971  49.48999786
C    15.21999931   4.38000011  48.36000061
C    16.61000061   4.30999994  48.27999878
C     6.71000004   3.28000021  48.95999908
H     6.06887770   3.90687466  48.34024811
H    11.10000038   3.78999996  46.65000153
H    12.18999958   5.40999985  51.25000000
H     9.77000046   5.12000036  51.88999939
H     7.59000015   4.55999994  51.31000137
H     8.78999996   3.42000008  47.32999802
H    17.20000076   4.01999998  47.42000198
H     6.15000010   2.91000009  49.81999969
H     6.90999985   2.40999985  48.31999969
