96

S    17.64000130   5.44000053  57.88999939
C    20.25000000   5.61999989  57.12999725
C    18.98999977   5.19000006  56.77000046
C    18.61999893   4.56999969  55.52999878
C    19.70999908   4.34999990  54.71000290
C    21.02999878   4.79999971  54.97000122
C    22.06999969   4.65999985  54.01000214
C    23.34000015   5.09000015  54.29999924
C    23.61999893   5.78999996  55.51000214
C    22.62000084   6.00000000  56.43000031
C    21.31000137   5.50000000  56.19999695
C    17.18000031   4.38000011  55.48999786
C    16.51000023   4.78999996  56.68000031
C    15.13000011   4.84000015  56.77999878
C    25.02000046   6.12999964  55.94999695
H    25.40378761   5.40506554  56.66782379
H    20.36000061   6.05999994  58.11999893
H    19.45999908   3.88999987  53.75999832
H    21.77999878   4.09999990  53.13000107
H    24.18000031   4.94999981  53.61999893
H    22.82999992   6.37000036  57.43000031
H    14.63000107   5.03000021  57.72999573
H    25.75000000   6.35999966  55.15999603
H    24.90999985   7.09000015  56.46999741
S    13.97999954   3.63000011  53.18000031
C    11.31999969   3.42000008  53.94000244
C    12.57999992   3.88999987  54.22999954
C    12.90999985   4.50000000  55.48999786
C    11.87999916   4.65999985  56.39999771
C    10.55999947   4.28999996  56.04000092
C     9.44999981   4.55000019  56.88999939
C     8.19000053   4.05999994  56.62000275
C     7.86999989   3.42000008  55.40000153
C     8.89999962   3.17999983  54.52000046
C    10.22999954   3.61999989  54.80999756
C    14.35999966   4.61000013  55.63000107
C    15.06000042   4.19000006  54.47999954
C    16.42000008   3.91000009  54.40999985
C     6.50000000   2.82000017  55.18000031
H     5.91878891   3.53588223  54.59878922
H    11.19999981   2.91000009  52.98999786
H    12.09000015   5.13000011  57.35000229
H     9.67000008   4.99000025  57.85999680
H     7.46000004   4.05999994  57.42000198
H     8.67999935   2.61999989  53.61999893
H    16.92000008   3.54999995  53.52000427
H     6.09000015   2.57999992  56.17000198
H     6.69000053   1.92000008  54.58000183
S    14.22999954   1.76999998  50.24000168
C    11.54999924   1.10000002  50.84000015
C    12.89000034   1.02999997  51.14999771
C    13.40000057   0.38000000  52.31999969
C    12.48999977  -0.17999999  53.20000076
C    11.10000038  -0.08000001  52.95999908
C    10.06000042  -0.62000000  53.76999664
C     8.73000050  -0.52999997  53.43999863
C     8.32999992   0.32999998  52.37999725
C     9.26000023   0.90000004  51.52999878
C    10.62999916   0.63000000  51.81000137
C    14.85000038   0.48000002  52.47000122
C    15.42000008   1.33000004  51.49000168
C    16.73999977   1.74000001  51.44000244
C     6.89000034   0.65999997  52.04999924
H     6.49016523   0.15306640  51.17179108
H    11.21000099   1.63000000  49.95999908
H    12.79000092  -0.85000002  54.00000000
H    10.26000023  -1.13000000  54.71000290
H     7.96000004  -0.90999997  54.10999680
H     9.02999973   1.34000003  50.56999969
H    17.02000046   2.37000012  50.61000061
H     6.25999975   0.35999998  52.90000153
H     6.91999960   1.75000000  51.93999863
S    18.20999908  -0.22000000  54.65000153
C    20.85000038   0.67000002  54.08000183
C    19.50000000   0.64999998  53.80000305
C    18.96999931   1.36000013  52.67000198
C    19.86999893   2.00999999  51.84999847
C    21.25999832   1.89999998  52.04999924
C    22.15999985   2.34999990  51.04000092
C    23.52000046   2.29999995  51.25000000
C    24.03000069   1.58000004  52.36999893
C    23.21000099   1.03999996  53.33000183
C    21.80999947   1.15999997  53.15000153
C    17.53999901   1.19999993  52.45999908
C    17.02000046   0.34000003  53.46000290
C    15.67000008   0.01000000  53.50999832
C    25.52000046   1.62000000  52.65999603
H    25.84822464   1.46302319  53.68748093
H    21.12999916   0.32000002  55.06999969
H    19.52000046   2.47000003  50.91999817
H    21.67000008   2.86000013  50.21999741
H    24.20000076   3.00000000  50.79000092
H    23.68000031   0.75000000  54.27000046
H    15.14000034  -0.48000002  54.31999969
H    26.07000160   2.43000007  52.18000031
H    25.86000061   0.74000001  52.09000015
