96

S    17.32999992   5.50000000  58.02000046
C    20.00000000   5.38999987  57.44999695
C    18.73999977   4.98000002  57.08000183
C    18.43000031   4.56999969  55.73999786
C    19.48999977   4.46999979  54.86000061
C    20.76999855   4.96000004  55.20000076
C    21.81999969   4.78999996  54.26000214
C    23.12999916   5.05000019  54.59000015
C    23.40999985   5.51999998  55.90999985
C    22.42000198   5.79999971  56.81999969
C    21.07999992   5.40999985  56.52999878
C    16.98999977   4.67000008  55.51000214
C    16.27000046   5.13000011  56.63999939
C    14.88999939   5.27999973  56.65999985
C    24.86000061   5.82999992  56.18999863
H    25.27337837   5.29545784  57.04526520
H    20.26000023   5.84999990  58.40000153
H    19.37000084   3.96000004  53.89999771
H    21.61000061   4.34999990  53.29000092
H    23.88000107   4.85000038  53.83999634
H    22.65000153   6.19000006  57.81000137
H    14.47999954   5.65999985  57.60000229
H    25.42000008   5.86999989  55.24000168
H    24.84000015   6.88000011  56.50000000
S    13.66000080   3.73000002  53.27999878
C    11.02000046   3.77999997  53.96999741
C    12.28000069   4.26999998  54.25000000
C    12.67000008   4.79999971  55.52000046
C    11.72999954   4.90000010  56.52999878
C    10.39999962   4.53000021  56.20999908
C     9.35000038   4.63999987  57.15999985
C     8.03999996   4.28999996  56.90999985
C     7.67000008   3.71000004  55.68000031
C     8.67000008   3.51999998  54.75999832
C    10.03000069   3.91000009  54.97000122
C    14.11999893   4.88000011  55.56000137
C    14.82999992   4.26000023  54.51000214
C    16.21999931   4.19000006  54.43999863
C     6.25000000   3.21000004  55.48999786
H     5.84340858   3.67365718  54.59121704
H    10.86999989   3.22000003  53.04999924
H    11.96000004   5.17000008  57.56000137
H     9.67000008   4.92999983  58.15999985
H     7.18999958   4.41000032  57.56999969
H     8.42000008   2.99000001  53.83999634
H    16.70999908   3.68999982  53.61000061
H     5.65999985   3.38999987  56.39999771
H     6.25999975   2.13000011  55.31000137
S    14.34999943   1.70000005  50.02999878
C    11.72000027   0.97999996  50.58000183
C    13.04999924   0.88999999  50.91999817
C    13.45999908   0.32000002  52.16999817
C    12.43999958  -0.16000001  52.97000122
C    11.05999947  -0.02000000  52.68000031
C    10.01999950  -0.46000001  53.54000092
C     8.71000004  -0.19999999  53.23999786
C     8.32999992   0.61000001  52.12999725
C     9.30999947   1.04999995  51.27999878
C    10.67000008   0.67000002  51.47999573
C    14.84000015   0.68000007  52.47000122
C    15.46000004   1.31999993  51.37000275
C    16.79999924   1.65000010  51.45999908
C     6.86999989   0.79999995  51.79999924
H     6.45655012  -0.02689958  51.22259521
H    11.31999969   1.44999993  49.68000031
H    12.69000053  -0.55000001  53.95000076
H    10.34000015  -1.03999996  54.40999985
H     7.90999985  -0.67000002  53.81000137
H     9.11000061   1.72999990  50.45999908
H    17.26000023   2.06999993  50.56999969
H     6.25000000   0.97000003  52.69000244
H     6.86999989   1.76999998  51.27999878
S    18.09999847   0.13000000  54.92000198
C    20.81000137   0.69000000  54.18000031
C    19.45000076   0.76999998  53.95999908
C    18.96000099   1.42000008  52.77999878
C    19.84000015   2.01999998  51.90000153
C    21.22999954   1.95999992  52.18000031
C    22.13000107   2.51999998  51.23000336
C    23.46999931   2.53999996  51.51000214
C    24.00000000   1.94999993  52.69000244
C    23.15999985   1.39999998  53.62999725
C    21.76000214   1.38000000  53.37999725
C    17.53000069   1.25999999  52.60000229
C    16.93000031   0.51999998  53.64999771
C    15.57999992   0.20999999  53.55999756
C    25.50000000   1.82999992  52.87000275
H    25.81957436   2.09276009  53.87843323
H    21.18999863   0.31000000  55.12000275
H    19.42000008   2.29999995  50.93999863
H    21.73999977   3.02999997  50.34999847
H    24.18000031   3.09999990  50.90999985
H    23.50000000   0.88999999  54.52999878
H    15.07999992  -0.31000000  54.36999893
H    25.88000107   2.48000002  52.08000183
H    25.76000023   0.82000005  52.56000137
