96

S    17.00000000   5.44000053  57.94000244
C    19.73999977   5.51999998  57.23999786
C    18.45000076   5.13000011  56.97000122
C    18.13999939   4.55000019  55.70000076
C    19.11000061   4.34999990  54.73999786
C    20.45999908   4.63999987  55.06999969
C    21.52000046   4.39000034  54.15000153
C    22.85000038   4.59000015  54.40999985
C    23.18000031   5.18000031  55.65999985
C    22.18000031   5.44000053  56.56000137
C    20.79999924   5.14999962  56.37000275
C    16.69999886   4.42000008  55.47999954
C    15.98000050   4.96000004  56.56999969
C    14.59000015   5.07999992  56.55000305
C    24.61000061   5.65999985  55.77999878
H    25.09259415   5.15611649  56.61743927
H    19.96000099   6.11999989  58.13000107
H    18.86999893   3.93000007  53.75999832
H    21.17000198   4.21000004  53.13999939
H    23.59000015   4.26000023  53.68000031
H    22.57999802   6.00000000  57.41000366
H    14.02999973   5.46000004  57.38999939
H    25.15000153   5.51999998  54.84000397
H    24.63000107   6.74000025  55.94999695
S    13.45999908   3.56999993  53.06000137
C    10.70000076   3.73000002  53.63999939
C    12.00000000   4.07000017  53.94000244
C    12.44999981   4.65000010  55.17000198
C    11.46000004   4.94000006  56.07999802
C    10.11000061   4.55999994  55.86000061
C     9.06999969   4.59999990  56.83000183
C     7.76000023   4.23999977  56.58000183
C     7.39000034   3.76999998  55.30000305
C     8.36000061   3.58000016  54.34000015
C     9.70000076   3.93000007  54.64000320
C    13.89000034   4.65999985  55.40999985
C    14.57999992   4.03999996  54.34000015
C    15.97000027   3.91999984  54.40000153
C     5.98000002   3.60000014  54.78000259
H     5.70962715   4.16920567  53.89061737
H    10.44000053   3.28999996  52.69000244
H    11.72999954   5.14999962  57.11000061
H     9.35000038   4.90000010  57.84000015
H     6.98999977   4.55000019  57.28000259
H     8.15999985   3.25999999  53.31999969
H    16.43000031   3.47000003  53.52000427
H     5.33999968   4.00000000  55.58000183
H     5.75999975   2.52999997  54.65999985
S    18.04000092   5.75000000  52.02000046
C    20.69999886   5.91000032  51.27999878
C    19.42000008   5.52999973  50.93000031
C    19.03000069   5.10999966  49.61999893
C    19.96999931   5.01999950  48.61000061
C    21.31999969   5.32999992  48.92000198
C    22.39000130   5.15999985  48.00000000
C    23.68999863   5.36000013  48.40999985
C    24.03000069   5.69000006  49.73999786
C    23.01000214   5.98000002  50.61999893
C    21.67000008   5.66999960  50.27000046
C    17.59000015   4.94000006  49.51000214
C    16.93000031   5.26000023  50.72000122
C    15.54999924   5.38000011  50.76000214
C    25.45000076   6.10000038  50.06000137
H    25.90482330   5.42487240  50.78487396
H    20.96999931   6.24000025  52.28000259
H    19.70000076   4.51999998  47.68000031
H    22.19000053   4.67999983  47.04000092
H    24.48999786   5.19000006  47.70000076
H    23.16999817   6.44999981  51.58000183
H    15.06999969   5.42999983  51.72999954
H    26.00000000   6.37000036  49.13999939
H    25.51000214   7.09999990  50.50000000
S    14.40999985   4.09000015  47.14000320
C    11.72999954   3.93000007  47.95000076
C    13.01000023   4.38000011  48.18999863
C    13.32999992   4.99000025  49.43999863
C    12.35999966   5.23999977  50.38999939
C    11.02000046   4.86000013  50.13000107
C     9.92999935   5.07999992  51.02000427
C     8.64999962   4.69000006  50.70999908
C     8.32999992   4.05000019  49.48999786
C     9.35999966   3.82999992  48.60000229
C    10.71000004   4.17000008  48.89999771
C    14.78000069   5.05000019  49.62999725
C    15.46000004   4.65000010  48.46000290
C    16.84999847   4.59999990  48.36999893
C     6.86999989   3.73000002  49.26000214
H     6.44222021   4.28611374  48.42583084
H    11.49000072   3.40999985  47.02999878
H    12.65999985   5.63000011  51.36000061
H    10.15999985   5.61999989  51.93999863
H     7.86000013   4.96000004  51.40999603
H     9.11999989   3.54999995  47.57999802
H    17.30999947   4.23000002  47.45999908
H     6.44999981   3.94000006  50.25000000
H     6.63000011   2.66000009  49.15000153
