96

S    17.02999878   5.25000000  57.91999817
C    19.63999939   5.46999979  57.06999969
C    18.39999962   4.92999983  56.83000183
C    17.98999977   4.32999992  55.59999847
C    19.01000023   4.11999989  54.69999695
C    20.30999947   4.65999985  54.88999939
C    21.31000137   4.34999990  53.93000031
C    22.60999870   4.69000006  54.20999908
C    23.02000046   5.27999973  55.43000031
C    22.04000092   5.59999990  56.35000229
C    20.65999985   5.38999987  56.07999802
C    16.54000092   4.21999979  55.52000046
C    15.88000107   4.69999981  56.68000031
C    14.52999973   4.99000025  56.58000183
C    24.44000053   5.69999981  55.70999908
H    24.90078354   5.01945734  56.42598724
H    19.78000069   5.92999983  58.04999924
H    18.88000107   3.51000023  53.80000305
H    20.95000076   3.60000014  53.22000122
H    23.47999954   4.32000017  53.67000198
H    22.27999878   5.78000021  57.38999939
H    14.09000015   5.46999979  57.44999695
H    25.06000137   5.78999996  54.80999756
H    24.56000137   6.71000004  56.11999893
S    13.36999989   3.71000004  53.00000000
C    10.67000008   3.50000000  53.77999878
C    11.95000076   3.89999986  54.05000305
C    12.25999928   4.48000002  55.31999969
C    11.28999901   4.53000021  56.30000305
C     9.94999981   4.18000031  56.00000000
C     8.93999958   4.26000023  57.00000000
C     7.63999987   4.00999975  56.65999985
C     7.28999996   3.54999995  55.35999680
C     8.25000000   3.38000011  54.38000107
C     9.59999943   3.68000007  54.69999695
C    13.69999981   4.61000013  55.52000046
C    14.40000057   4.09999990  54.38999939
C    15.77000046   3.86999989  54.40999985
C     5.89999962   2.96999979  55.22999573
H     5.22418213   3.58179235  54.63243484
H    10.44000053   3.05000019  52.81000137
H    11.68000031   4.67999983  57.30999756
H     9.15000057   4.55999994  58.02000046
H     6.90000010   4.01999998  57.44999695
H     8.10000038   2.98000002  53.37999725
H    16.27000046   3.50000000  53.50999832
H     5.38999987   2.86999989  56.19999695
H     5.93999958   2.00000000  54.72000122
S    13.71000099   1.80000007  50.11000061
C    11.05000019   1.22000003  50.83000183
C    12.39999962   1.13999999  51.11000061
C    12.89000034   0.46000001  52.27000427
C    11.97000027  -0.13000000  53.13000107
C    10.57999992  -0.02000000  52.90000153
C     9.59999943  -0.65999997  53.69999695
C     8.26000023  -0.48999998  53.43999863
C     7.81000042   0.20999999  52.29000092
C     8.71999931   0.75999999  51.40999603
C    10.10000038   0.71999997  51.76000214
C    14.32000065   0.69000000  52.39999771
C    14.93999958   1.30999994  51.29000092
C    16.27000046   1.69000006  51.20999908
C     6.32999992   0.41999999  52.08000183
H     5.89088202  -0.25284228  51.34341431
H    10.67999935   1.64000010  49.89999771
H    12.36999989  -0.76999998  53.90999603
H    10.01999950  -1.28000009  54.48999786
H     7.53999996  -0.82000005  54.18000031
H     8.43000031   1.18000007  50.45999908
H    16.63999939   2.21000004  50.33000183
H     5.82999992   0.34000003  53.04999924
H     6.21999979   1.44999993  51.72000122
S    17.70000076   0.08000001  54.56999969
C    20.30999947   0.48999998  53.88999939
C    19.00000000   0.78000003  53.59000397
C    18.53000069   1.42000008  52.39999771
C    19.51000023   1.82999992  51.51000214
C    20.88000107   1.65000010  51.79999924
C    21.88999939   2.16000009  50.93000031
C    23.21000099   2.09999990  51.30000305
C    23.64999962   1.41000009  52.45999908
C    22.70000076   0.82999998  53.27000046
C    21.31000137   0.94999999  52.98999786
C    17.10000038   1.23000002  52.25000000
C    16.51000023   0.54000002  53.34000015
C    15.15999985   0.20999999  53.40999985
C    25.13000107   1.08999991  52.58999634
H    25.52880859   1.45320034  53.53717041
H    20.46999931  -0.09999999  54.79000092
H    19.29000092   2.27999997  50.54999924
H    21.68000031   2.68000007  50.00000000
H    23.85999870   2.42000008  50.50000000
H    22.95000076   0.22000000  54.13000107
H    14.67000008  -0.41999999  54.13999939
H    25.66999817   1.61000001  51.79000092
H    25.26000023   0.02000000  52.42000198
