96

S    17.30999947   5.58000040  57.55000305
C    20.03000069   5.75999975  56.81000137
C    18.75000000   5.35000038  56.52999878
C    18.38000107   4.81999969  55.25000000
C    19.37999916   4.75000000  54.29999924
C    20.75000000   4.94999981  54.59000015
C    21.80000114   4.94999981  53.62999725
C    23.12999916   5.07999992  53.97999573
C    23.47999954   5.71000004  55.20000076
C    22.42000198   5.89999962  56.05999756
C    21.04999924   5.56999969  55.84999847
C    16.94000053   4.69000006  55.02999878
C    16.26000023   5.05000019  56.22000122
C    14.88000011   5.23000002  56.27999878
C    24.86000061   6.21000004  55.56999969
H    25.28556442   5.63548756  56.39275742
H    20.30999947   6.15000010  57.77999878
H    19.13999939   4.55999994  53.26000214
H    21.53000069   4.56999969  52.64999771
H    23.97999954   4.86999989  53.33000183
H    22.53999901   6.34999990  57.04000092
H    14.34000015   5.65999985  57.11999893
H    25.59999847   6.09000015  54.77000427
H    24.76000023   7.27999973  55.77000046
S    13.63999939   3.96000004  52.77000046
C    10.93000031   3.91999984  53.53000259
C    12.23999977   4.19999981  53.83999634
C    12.64000034   4.79999971  55.07999802
C    11.68000031   4.99000025  56.04999924
C    10.32999992   4.63999987  55.83000183
C     9.35999966   4.76000023  56.86999893
C     8.11999989   4.19999981  56.70000076
C     7.77999973   3.56999993  55.47000122
C     8.64999962   3.56999993  54.40999985
C     9.94999981   4.13999987  54.54000092
C    14.09000015   4.86000013  55.18000031
C    14.78999996   4.53999996  53.99000168
C    16.17000008   4.41000032  53.89999771
C     6.38000011   3.05999994  55.26000214
H     5.88102007   3.70867443  54.54004288
H    10.67999935   3.44000006  52.58999634
H    11.94000053   5.19000006  57.09000015
H     9.59000015   5.33999968  57.77000046
H     7.36000013   4.42000008  57.43999863
H     8.30999947   3.17999983  53.44999695
H    16.56999969   4.09000015  52.94000244
H     5.84999990   2.94000006  56.22000122
H     6.50000000   2.00999999  54.94999695
S    14.40999985   2.25000000  50.01999664
C    11.73999977   1.49000001  50.65999985
C    13.07000065   1.61000001  50.98999786
C    13.55999947   0.93000001  52.15000153
C    12.69000053   0.35999998  53.06000137
C    11.30000019   0.41999999  52.83000183
C    10.26999950  -0.05000000  53.69999695
C     8.93999958  -0.07000000  53.39000320
C     8.46000004   0.57999998  52.22000122
C     9.39999962   1.19000006  51.43000031
C    10.80000019   1.00999999  51.60999680
C    14.98000050   1.15999997  52.37999725
C    15.59000015   1.71000004  51.23000336
C    16.97000122   1.90999997  51.17000198
C     6.97000027   0.87000000  52.16999817
H     6.50784540   0.25853372  51.39500046
H    11.35000038   1.92000008  49.73999786
H    13.02999973  -0.34000003  53.81999969
H    10.57000065  -0.50999999  54.64000320
H     8.19999981  -0.51999998  54.05000305
H     9.06999969   1.92000008  50.70000076
H    17.43999863   2.47000003  50.37000275
H     6.47000027   0.50999999  53.06999969
H     6.75000000   1.93000007  51.97999954
S    18.38000107   0.56000000  54.61000061
C    21.11000061   0.99000001  53.81000137
C    19.75000000   1.05999994  53.61000061
C    19.23999977   1.56000006  52.36999893
C    20.10999870   2.15000010  51.47999573
C    21.51000023   2.10999990  51.63999939
C    22.34999847   2.86999989  50.77999878
C    23.67000198   3.07999992  51.11999893
C    24.18999863   2.43000007  52.28000259
C    23.40999985   1.64000010  53.09000015
C    22.01999855   1.48000002  52.83000183
C    17.79000092   1.52999997  52.23999786
C    17.15999985   0.99000001  53.40000153
C    15.77999973   0.88000000  53.50000000
C    25.59000015   2.69000006  52.77999878
H    25.92992783   2.08804631  53.62273407
H    21.52000046   0.65999997  54.75999832
H    19.73999977   2.56000018  50.54000092
H    21.97999954   3.45999980  49.94999695
H    24.14999962   3.88999987  50.56999969
H    23.80000114   1.26999998  54.02999878
H    15.27999973   0.48999998  54.38000107
H    25.86000061   3.72000003  53.02999878
H    26.18000031   2.34999990  51.91999817
