96

S    17.01000023   5.63000011  57.91999817
C    19.70000076   5.46999979  57.15000153
C    18.39999962   5.09999990  56.93999863
C    18.00000000   4.63999987  55.65000153
C    18.96999931   4.38000011  54.68999863
C    20.32999992   4.69999981  54.93000031
C    21.28999901   4.55000019  53.88999939
C    22.60999870   4.90000010  54.06999969
C    22.96999931   5.38000011  55.35999680
C    22.11000061   5.42000008  56.43000031
C    20.72000122   5.27999973  56.18000031
C    16.55999947   4.67000008  55.41999817
C    15.93000031   5.09000015  56.62000275
C    14.55000019   5.18000031  56.76000214
C    24.34000015   6.00000000  55.50000000
H    24.87330055   5.48092127  56.29639816
H    20.07999802   6.01999998  58.01000214
H    18.60000038   3.88999987  53.80000305
H    20.85000038   4.15000010  52.97999954
H    23.31000137   4.61000013  53.29999924
H    22.29999924   5.73000002  57.45999908
H    14.07999992   5.32999992  57.72999573
H    24.93000031   5.98999977  54.58000183
H    24.27000046   7.03999996  55.86000061
S    13.42000008   3.81000018  53.15000153
C    10.77999973   3.56999993  53.89999771
C    12.00000000   4.13000011  54.16999817
C    12.35000038   4.69000006  55.44000244
C    11.33999920   4.78999996  56.38000107
C    10.00000000   4.46000004  56.06999969
C     8.89999962   4.55000019  56.97000122
C     7.60999966   4.23000002  56.60999680
C     7.34000015   3.70000005  55.31999969
C     8.38000011   3.51000023  54.43999863
C     9.72000027   3.84000015  54.79999924
C    13.78000069   4.81999969  55.63999939
C    14.44000053   4.51999998  54.41999817
C    15.81999969   4.46000004  54.26000214
C     5.97000027   3.24000001  54.88999939
H     5.49504709   3.78584123  54.07478333
H    10.55999947   3.14000010  52.91999817
H    11.54999924   5.12000036  57.39999771
H     9.06999969   4.90999985  57.97999954
H     6.78999996   4.23000002  57.31999969
H     8.19000053   3.07999992  53.46000290
H    16.28000069   4.07999992  53.34999847
H     5.28999996   3.31999993  55.75000000
H     6.02999973   2.16999984  54.64000320
S    17.68000031   5.92999983  52.09000015
C    20.34000015   6.03999996  51.23000336
C    19.04999924   5.61999989  51.00000000
C    18.60000038   5.03999996  49.78000259
C    19.55000114   4.86000013  48.79000092
C    20.92000008   5.12000036  49.02000046
C    21.93000031   5.01999950  48.02000046
C    23.25000000   5.29999971  48.27000046
C    23.71999931   5.59000015  49.58000183
C    22.72000122   5.82999992  50.48999786
C    21.32999802   5.59000015  50.31999969
C    17.14999962   5.05000019  49.61999893
C    16.53000069   5.40999985  50.84000015
C    15.15999985   5.65999985  50.90000153
C    25.15000153   5.98999977  49.86999893
H    25.57656860   5.69851208  50.82977676
H    20.59000015   6.65999985  52.09000015
H    19.34000015   4.76999998  47.72999573
H    21.53000069   4.88999987  47.01000214
H    23.98999977   5.36999989  47.48000336
H    22.93999863   6.34000015  51.43000031
H    14.72000027   6.00000000  51.83000183
H    25.73999786   5.51999998  49.06999969
H    25.32999992   7.03000021  49.54999924
S    13.86000061   4.53999996  47.28000259
C    11.18999958   4.61000013  48.06000137
C    12.50000000   4.94000006  48.34999847
C    12.94000053   5.33999968  49.64000320
C    11.95000076   5.47999954  50.59999847
C    10.57000065   5.26999998  50.35999680
C     9.56999969   5.28999996  51.37000275
C     8.28999996   4.88999987  51.07999802
C     7.88999987   4.56999969  49.75000000
C     8.80999947   4.73000002  48.74000168
C    10.19000053   4.88000011  49.02999878
C    14.39000034   5.38000011  49.75999832
C    15.01999950   5.01999950  48.54000092
C    16.39000130   4.79999971  48.47000122
C     6.51000023   4.09999990  49.36000061
H     5.91131306   4.64879608  48.63302231
H    11.00000000   4.11000013  47.11000061
H    12.20999908   5.88999987  51.56999969
H     9.85999966   5.40999985  52.41000366
H     7.51999950   4.73000002  51.84000015
H     8.56000042   4.63999987  47.69000244
H    16.87000084   4.32000017  47.63000107
H     5.86999989   3.96000004  50.24000168
H     6.78999996   3.10999990  48.97999573
