96

S    17.57999992   5.59000015  57.85999680
C    20.31999969   5.55999994  57.08000183
C    18.98999977   5.32999992  56.81000137
C    18.57999992   4.69000006  55.59999847
C    19.56999969   4.42999983  54.66999817
C    20.93000031   4.78999996  54.86000061
C    21.90000153   4.63000011  53.82999802
C    23.16999817   5.10999966  54.09999847
C    23.57000160   5.59000015  55.37000275
C    22.69000053   5.66999960  56.43000031
C    21.35000038   5.32000017  56.12999725
C    17.13000107   4.53000021  55.51000214
C    16.42000008   5.03000021  56.63000107
C    15.03999901   5.07999992  56.72000122
C    24.96000099   6.11000013  55.65000153
H    25.44878006   5.47246313  56.38671112
H    20.63999939   6.01000023  58.01000214
H    19.29000092   3.76999998  53.86000061
H    21.52000046   4.48000002  52.83000183
H    23.90000153   4.97000027  53.30999756
H    22.93999863   6.10000038  57.39999771
H    14.52000046   5.47999954  57.57999802
H    25.59000015   6.15999985  54.75000000
H    25.00000000   7.17999983  55.89000320
S    13.99000072   3.58000016  53.11000061
C    11.28999901   4.03999996  53.59000397
C    12.58999920   4.28000021  53.95999908
C    12.90999985   4.65999985  55.30000305
C    11.92999935   4.84000015  56.25000000
C    10.57999992   4.63000011  55.86999893
C     9.52999973   4.67999983  56.84000015
C     8.22000027   4.48999977  56.47999573
C     7.90000010   4.05000019  55.17000198
C     8.89000034   3.94000006  54.22999954
C    10.24000072   4.25000000  54.52999878
C    14.34000015   4.72000027  55.56000137
C    15.00000000   4.13999987  54.45000076
C    16.39000130   4.09000015  54.40000153
C     6.53999996   3.51000023  54.79000092
H     5.84991169   4.27834558  54.44139862
H    10.97000027   3.52999973  52.69000244
H    12.13999939   5.21000004  57.25999832
H     9.94000053   4.81999969  57.83000183
H     7.46999979   4.46000004  57.28000259
H     8.73999977   3.35999990  53.30999756
H    17.00000000   3.72000003  53.57999802
H     6.15999985   2.91000009  55.63000107
H     6.80000019   2.82999992  53.96999741
S    14.29999924   1.77999997  49.97000122
C    11.61999893   1.41000009  50.48999786
C    12.90999985   1.21000004  50.91999817
C    13.35999966   0.52999997  52.09999847
C    12.31999969  -0.01000000  52.84000015
C    10.97000027   0.29999998  52.54000092
C     9.92000008  -0.19000000  53.34999847
C     8.57999992   0.05000000  53.15000153
C     8.21000004   0.83999997  52.02999878
C     9.19000053   1.33000004  51.19999695
C    10.57000065   1.05999994  51.38000107
C    14.78000069   0.69999999  52.36999893
C    15.42000008   1.34000003  51.27999878
C    16.76000023   1.67999995  51.31000137
C     6.74000025   0.99000001  51.69000244
H     6.43476677   0.14528477  51.07243729
H    11.31999969   2.01999998  49.65000153
H    12.51999950  -0.78000003  53.59000397
H    10.21000004  -0.68000007  54.27999878
H     7.75000000  -0.34999999  53.73000336
H     8.89000034   1.92000008  50.34000015
H    17.13999939   2.11999989  50.38999939
H     6.14000034   0.93999994  52.60000229
H     6.54999971   1.92000008  51.13999939
S    18.07999992   0.20999999  54.75000000
C    20.76999855   0.55000001  54.09999847
C    19.45000076   0.69000000  53.74000168
C    18.98999977   1.21000004  52.49000168
C    19.92000008   1.88999999  51.72000122
C    21.28999901   1.80000007  52.05999756
C    22.32999992   2.34999990  51.25000000
C    23.65999985   2.29999995  51.56999969
C    24.05999947   1.58999991  52.74000168
C    23.12999916   0.94999999  53.53000259
C    21.75000000   1.04999995  53.20000076
C    17.54999924   1.13999999  52.34000397
C    16.90000153   0.56000000  53.46000290
C    15.52000046   0.39999998  53.52000427
C    25.52999878   1.36999989  53.01000214
H    25.85584641   1.66042817  54.00878906
H    21.07999992   0.07000000  55.01999664
H    19.54000092   2.40999985  50.84000015
H    21.90999985   2.76999998  50.34000015
H    24.41999817   2.70000005  50.90000153
H    23.32999992   0.39000002  54.43999863
H    15.03000069  -0.13000000  54.33000183
H    26.11000061   2.01999998  52.34000397
H    25.81000137   0.34000003  52.77999878
