96

S    17.25000000   5.32999992  57.88999939
C    19.93000031   5.72000027  57.11999893
C    18.64999962   5.33999968  56.79999924
C    18.30999947   4.72000027  55.54999924
C    19.37000084   4.51000023  54.68000031
C    20.69999886   4.88000011  54.99000168
C    21.77000046   4.78999996  54.06000137
C    23.05000114   5.15999985  54.40999985
C    23.38000107   5.65999985  55.68999863
C    22.36000061   5.84999990  56.59999847
C    21.02999878   5.52999973  56.23000336
C    16.87999916   4.63000011  55.34000015
C    16.18000031   4.84000015  56.56000137
C    14.80999947   5.07999992  56.56999969
C    24.77000046   6.17000008  56.04000092
H    25.29786873   5.47806692  56.69626617
H    20.17000008   6.24000025  58.04000092
H    19.14999962   4.09999990  53.69999695
H    21.59000015   4.34999990  53.08000183
H    23.77000046   5.13000011  53.60000229
H    22.50000000   6.34999990  57.56000137
H    14.34999943   5.40000010  57.50000000
H    25.36000061   6.32999992  55.13000107
H    24.77000046   7.09999990  56.60999680
S    13.61999989   3.84999990  52.95999908
C    10.93999958   3.93000007  53.68999863
C    12.23999977   4.25000000  54.00000000
C    12.61000061   4.61999989  55.33000183
C    11.64000034   4.76999998  56.31000137
C    10.29999924   4.53999996  55.94999695
C     9.28999996   4.73000002  56.93000031
C     7.99000025   4.36999989  56.65000153
C     7.62000036   3.75999975  55.41999817
C     8.55000019   3.68000007  54.40999985
C     9.89999962   4.07999992  54.64000320
C    14.06000042   4.72000027  55.45000076
C    14.73000050   4.28000021  54.27999878
C    16.11999893   4.25000000  54.22000122
C     6.23000050   3.25000000  55.13000107
H     5.77370262   3.86315036  54.35286713
H    10.70000076   3.49000001  52.71999741
H    11.90000057   4.99000025  57.34000397
H     9.61000061   4.86999989  57.95999908
H     7.28999996   4.51000023  57.45999908
H     8.34999943   3.19000006  53.46000290
H    16.69999886   3.84000015  53.40000153
H     5.53999996   3.25999999  55.98999786
H     6.37000036   2.21000004  54.79999924
S    17.94999886   5.78999996  52.09999847
C    20.61000061   6.17999983  51.31000137
C    19.34999847   5.72000027  51.00999832
C    18.96000099   5.32999992  49.68999863
C    19.93999863   5.15999985  48.72000122
C    21.27000046   5.53999996  49.01000214
C    22.34000015   5.38000011  48.08000183
C    23.61999893   5.73000002  48.41999817
C    23.95000076   6.34000015  49.65999985
C    22.95000076   6.44000006  50.59000015
C    21.60000038   6.10000038  50.28999710
C    17.52000046   5.21000004  49.51000214
C    16.86000061   5.46999979  50.72999954
C    15.47000027   5.42000008  50.84000015
C    25.38000107   6.63999987  50.07999802
H    25.77302361   6.00401592  50.87319183
H    20.86000061   6.60000038  52.28000259
H    19.79999924   4.79999971  47.70000076
H    22.13000107   4.92999983  47.11999893
H    24.38999939   5.56999969  47.68000031
H    23.22000122   6.91999960  51.52999878
H    14.89999962   5.69999981  51.72000122
H    26.02999878   6.72999954  49.20999908
H    25.25000000   7.67000008  50.43000031
S    14.27000046   4.32000017  47.19999695
C    11.54999924   4.55000019  47.88999939
C    12.86999893   4.67000008  48.23999786
C    13.27000046   5.13000011  49.52999878
C    12.30000019   5.40000010  50.47999954
C    10.92000008   5.25000000  50.19000244
C     9.81000042   5.47999954  51.04999924
C     8.51000023   5.09000015  50.81999969
C     8.15999985   4.48000002  49.59000015
C     9.19999981   4.36999989  48.68999863
C    10.57000065   4.71000004  48.89999771
C    14.70999908   5.09000015  49.72000122
C    15.38000011   4.63999987  48.54999924
C    16.76000023   4.65000010  48.47000122
C     6.85999966   3.75000000  49.33000183
H     6.27904749   4.38054562  48.65694427
H    11.31000042   4.21000004  46.88000107
H    12.56999969   5.88000011  51.42000198
H     9.98999977   5.78000021  52.08000183
H     7.86999989   5.03000021  51.69000244
H     9.04999924   3.76999998  47.80000305
H    17.20000076   4.26999998  47.55000305
H     6.28000021   3.53999996  50.24000168
H     7.05999947   2.80999994  48.81000137
