96

S    17.28999901   5.36999989  58.00000000
C    19.97999954   5.65000010  57.25999832
C    18.71000099   5.25000000  56.93000031
C    18.40999985   4.61999989  55.68000031
C    19.45000076   4.41000032  54.79000092
C    20.79000092   4.74000025  55.08999634
C    21.81999969   4.85000038  54.12000275
C    23.11000061   5.10999966  54.51000214
C    23.42000008   5.51999998  55.83000183
C    22.36000061   5.78999996  56.66999817
C    21.04000092   5.36999989  56.36000061
C    16.97000122   4.46000004  55.52000046
C    16.23999977   4.82999992  56.68000031
C    14.85000038   4.92000008  56.65999985
C    24.80999947   5.98000002  56.19999695
H    25.42241669   5.36046076  56.85514450
H    20.17999840   6.25000000  58.13999939
H    19.20999908   4.32999992  53.74000168
H    21.68000031   4.67999983  53.06000137
H    23.94000053   5.07999992  53.80000305
H    22.60999870   6.43000031  57.51999664
H    14.27999973   5.01999950  57.57999802
H    25.38999939   6.12999964  55.27999878
H    24.70000076   6.94999981  56.70999908
S    13.68000031   3.82999992  53.04999924
C    10.98000050   3.75999975  53.69999695
C    12.27000046   4.01999998  54.10999680
C    12.63000011   4.55000019  55.38999939
C    11.59999943   4.88000011  56.25000000
C    10.27999973   4.48999977  55.94999695
C     9.22999954   4.75000000  56.88000107
C     7.92999983   4.34999990  56.70999908
C     7.63999987   3.86000013  55.40999985
C     8.56999969   3.75000000  54.40000153
C     9.94999981   3.95000005  54.65999985
C    14.06999969   4.65999985  55.52000046
C    14.78999996   4.30000019  54.36000061
C    16.18000031   4.18000031  54.40000153
C     6.26999950   3.28999996  55.08999634
H     5.73293686   3.92015409  54.38107300
H    10.69000053   3.42999983  52.70000076
H    11.77000046   5.26999998  57.25000000
H     9.47000027   5.13999987  57.87000275
H     7.21000004   4.44999981  57.51999664
H     8.19999981   3.42000008  53.43000031
H    16.77999878   4.07999992  53.50000000
H     5.75999975   3.17999983  56.05999756
H     6.51999998   2.29999995  54.68000031
S    13.83999920   1.95999992  50.21999741
C    11.14999962   1.50000000  50.90000153
C    12.48000050   1.25999999  51.12999725
C    12.93000031   0.41999999  52.19999695
C    12.03999996  -0.14000000  53.09999847
C    10.67000008   0.16000001  52.91999817
C     9.68999958  -0.22000000  53.88000107
C     8.36000061  -0.05000000  53.57999802
C     7.88000011   0.65999997  52.43999863
C     8.82000065   1.12000000  51.53999710
C    10.19999981   0.90000004  51.77000046
C    14.35999966   0.59999996  52.42000198
C    15.01000023   1.33000004  51.39999771
C    16.28000069   1.89999998  51.50000000
C     6.39999962   0.85000002  52.25000000
H     6.08042669   0.58723986  51.24156952
H    10.77999973   2.26999998  50.22999573
H    12.41000080  -0.54000002  54.03999710
H     9.98999977  -0.78000003  54.75999832
H     7.59999990  -0.35999998  54.29000092
H     8.45000076   1.62000000  50.65000153
H    16.68000031   2.50999975  50.70000076
H     5.82000017   0.24000001  52.95000076
H     6.24000025   1.92000008  52.44999695
S    17.65999985   0.24000001  54.86000061
C    20.34000015   0.79999995  54.13999939
C    18.98999977   0.93999994  53.90999603
C    18.48999977   1.52999997  52.70000076
C    19.40000153   2.16999984  51.86999893
C    20.79999924   2.11999989  52.09000015
C    21.77999878   2.56999993  51.17000198
C    23.13999939   2.42000008  51.36000061
C    23.59000015   1.75000000  52.52999878
C    22.67000008   1.19000006  53.37999725
C    21.27000046   1.38000000  53.22999954
C    17.04000092   1.47000003  52.58999634
C    16.48999977   0.61000001  53.57999802
C    15.14000034   0.29999998  53.54000092
C    25.06000137   1.41000009  52.64999771
H    25.47384834   1.86666095  53.54904938
H    20.63999939   0.06000000  54.86999893
H    19.12999916   2.61000013  50.91999817
H    21.44000053   2.99000001  50.22999573
H    23.85999870   2.70000005  50.59000015
H    23.02000046   0.46000001  54.09999847
H    14.73999977  -0.19000000  54.41999817
H    25.65000153   1.80999994  51.81999969
H    25.17999840   0.32000002  52.62000275
