96

S    17.27000046   5.27999973  58.15000153
C    19.98999977   5.18000031  57.69000244
C    18.72999954   4.79999971  57.28000259
C    18.45999908   4.35999966  55.94999695
C    19.50000000   4.25000000  55.05000305
C    20.78000069   4.67999983  55.47000122
C    21.88999939   4.53000021  54.59999847
C    23.16999817   4.92999983  54.92000198
C    23.39999962   5.63000011  56.12999725
C    22.39000130   5.63000011  57.06999969
C    21.04999924   5.26999998  56.76000214
C    17.02000046   4.28000021  55.73999786
C    16.21999931   4.76999998  56.81000137
C    14.84000015   4.88000011  56.79000092
C    24.79000092   6.09000015  56.51000214
H    25.22382545   5.48548889  57.30653381
H    20.13000107   5.58000040  58.68999863
H    19.30999947   3.88999987  54.03999710
H    21.70000076   3.97000027  53.68999863
H    23.94000053   4.82999992  54.15999985
H    22.65000153   5.79999971  58.11000061
H    14.27999973   5.05999994  57.70000076
H    25.36999893   5.86999989  55.61000061
H    24.77999878   7.17999983  56.58000183
S    13.93000031   3.63000011  53.11000061
C    11.14999962   3.53999996  53.79000092
C    12.46999931   3.79999995  54.10999680
C    12.74000072   4.40000010  55.37000275
C    11.72000027   4.80999994  56.22000122
C    10.36999893   4.57999992  55.86999893
C     9.30999947   4.75000000  56.79000092
C     8.01999950   4.32000017  56.55000305
C     7.68000031   3.81000018  55.27000046
C     8.71000004   3.55999994  54.38999939
C    10.07999992   3.84000015  54.65999985
C    14.17000008   4.48999977  55.63000107
C    14.93000031   4.17000008  54.47000122
C    16.29999924   3.96000004  54.58000183
C     6.26999950   3.37000012  54.95999908
H     5.93743467   3.75917149  53.99768448
H    10.95999908   2.98000002  52.88000107
H    12.02999973   5.01999950  57.23999786
H     9.56999969   5.00999975  57.81999969
H     7.32999992   4.32000017  57.37999725
H     8.36999989   3.15000010  53.43999863
H    16.86000061   3.55999994  53.74000168
H     5.58000040   3.58999991  55.77999878
H     6.34000015   2.27999997  54.84000397
S    13.97999954   1.35000002  50.20999908
C    11.28999901   0.90999997  50.94999695
C    12.63000011   0.75000000  51.18999863
C    13.15000057   0.16000001  52.38999939
C    12.22000027  -0.34000003  53.29000092
C    10.84000015  -0.09999999  53.09999847
C     9.89000034  -0.63000000  54.01000214
C     8.53999996  -0.48000002  53.79000092
C     8.06999969   0.19999999  52.63999939
C     8.93000031   0.79000002  51.75000000
C    10.31999969   0.51999998  51.90999985
C    14.57999992   0.34000003  52.56999969
C    15.15999985   1.07000005  51.50000000
C    16.50000000   1.47000003  51.51000214
C     6.60000038   0.48999998  52.39999771
H     6.16509008  -0.25148574  51.72980881
H    10.98999977   1.38000000  50.01999664
H    12.58999920  -1.03999996  54.03999710
H    10.19000053  -1.19999993  54.88999939
H     7.95000029  -1.02999997  54.52000046
H     8.63000011   1.54999995  51.03000259
H    16.84000015   2.03999996  50.65999985
H     6.06999969   0.43000001  53.36000061
H     6.44000006   1.50999999  52.02999878
S    17.76000023   0.08000001  54.97000122
C    20.48000145   0.52999997  54.33000183
C    19.14999962   0.61000001  54.00000000
C    18.72999954   1.36000013  52.84999847
C    19.68000031   1.74000001  51.90999985
C    21.04999924   1.61000001  52.21000290
C    22.03000069   2.20000005  51.37000275
C    23.34000015   2.17999983  51.77000046
C    23.81999969   1.48000002  52.90999985
C    22.86000061   0.97000003  53.75999832
C    21.47000122   1.08999991  53.48999786
C    17.29999924   1.23000002  52.63999939
C    16.63999939   0.54000002  53.68000031
C    15.38000011  -0.05000000  53.64999771
C    25.28000069   1.31999993  53.23999786
H    25.54277802   1.89526761  54.12775803
H    20.65999985  -0.04000000  55.24000168
H    19.25000000   2.00999999  50.94999695
H    21.64999962   2.66000009  50.45000076
H    24.07999992   2.70000005  51.17000198
H    23.21000099   0.41000003  54.62999725
H    15.06999969  -0.76999998  54.40999985
H    25.88999939   1.57000005  52.36000061
H    25.45000076   0.25999999  53.47000122
