96

S    17.53000069   5.51000023  57.78999710
C    20.19000053   5.65000010  57.01000214
C    18.92000008   5.22000027  56.72999954
C    18.47999954   4.67999983  55.47999954
C    19.43000031   4.50000000  54.47999954
C    20.76000023   4.92000008  54.71000290
C    21.80000114   4.75000000  53.75999832
C    23.12000084   4.94999981  54.09000015
C    23.51000023   5.59000015  55.28999710
C    22.50999832   5.84000015  56.19999695
C    21.14999962   5.46999979  55.97999954
C    17.02999878   4.61999989  55.34999847
C    16.36999893   5.13000011  56.50000000
C    14.98999977   5.26999998  56.50000000
C    24.94999886   5.98000002  55.54999924
H    25.31962776   5.24784994  56.26793289
H    20.55999947   5.92999983  58.00000000
H    19.04999924   4.17000008  53.52000427
H    21.53000069   4.42999983  52.76000214
H    23.85999870   4.56999969  53.39000320
H    22.72999954   6.19999981  57.21000290
H    14.50000000   5.50000000  57.44999695
H    25.48999977   6.01000023  54.59000015
H    25.06999969   6.93000031  56.09000397
S    13.78999901   3.75000000  53.06000137
C    11.10999966   3.81000018  53.81000137
C    12.42000008   4.07999992  54.13999939
C    12.71999931   4.65000010  55.41999817
C    11.69999981   4.82999992  56.32999802
C    10.34999943   4.55000019  56.00999832
C     9.23999977   4.67999983  56.90000153
C     7.94000053   4.35999966  56.62000275
C     7.65999985   3.79999995  55.34000015
C     8.69999981   3.55999994  54.47999954
C    10.03999901   3.96000004  54.72999954
C    14.17000008   4.82999992  55.45999908
C    14.88000011   4.30000019  54.34999847
C    16.26000023   4.19000006  54.26000214
C     6.28999996   3.24000001  55.05000305
H     5.84414768   3.72123694  54.17952728
H    10.85999966   3.54999995  52.78999710
H    11.98999977   5.05000019  57.35000229
H     9.52999973   5.07000017  57.87000275
H     7.27999973   4.51999998  57.45999908
H     8.56999969   3.15000010  53.47999954
H    16.69000053   3.88999987  53.30999756
H     5.60999966   3.32999992  55.90000153
H     6.34000015   2.20000005  54.68999863
S    17.59000015   5.79999971  51.77000046
C    20.28000069   5.98000002  50.97000122
C    18.97999954   5.61999989  50.68999863
C    18.68000031   4.97000027  49.45000076
C    19.67000008   4.76999998  48.50999832
C    21.01000023   5.14999962  48.76999664
C    22.09000015   5.05999994  47.84000015
C    23.38000107   5.40000010  48.15999985
C    23.67000198   6.01999998  49.40999985
C    22.63000107   6.28000021  50.27000046
C    21.31000137   5.80999947  50.00999832
C    17.22999954   4.81999969  49.31999969
C    16.52000046   5.29999971  50.44000244
C    15.13000011   5.35000038  50.50000000
C    25.06999969   6.43000031  49.79999924
H    25.54059792   5.73836327  50.49876785
H    20.50000000   6.51000023  51.88999939
H    19.47000122   4.35999966  47.51999664
H    21.90000153   4.48999977  46.93999863
H    24.11999893   5.14999962  47.41000366
H    22.95000076   6.84000015  51.13999939
H    14.68000031   5.60999966  51.45000076
H    25.76000023   6.40999985  48.95000076
H    25.09000015   7.46000004  50.17000198
S    14.01999950   4.25000000  46.84000015
C    11.25000000   4.25000000  47.55000305
C    12.57999992   4.41000032  47.85999680
C    12.96000004   4.97000027  49.13000107
C    11.97000027   5.09000015  50.08999634
C    10.60999966   4.81999969  49.81999969
C     9.59999943   4.98000002  50.80999756
C     8.27000046   4.69999981  50.58000183
C     7.95000029   4.17000008  49.31000137
C     8.85999966   4.03999996  48.27999878
C    10.21000004   4.44000006  48.48999786
C    14.40000057   5.03999996  49.34999847
C    15.11000061   4.69000006  48.16999817
C    16.47999954   4.48000002  48.18000031
C     6.61000013   3.50000000  49.10999680
H     6.11187029   4.06217527  48.32010651
H    11.05000019   3.67000008  46.65000153
H    12.27000046   5.26999998  51.11999893
H     9.96999931   5.40000010  51.75000000
H     7.40999985   4.90999985  51.20999908
H     8.60000038   3.68999982  47.28000259
H    16.98999977   4.32000017  47.23999786
H     5.97000027   3.53999996  50.00000000
H     6.75000000   2.45000005  48.82999802
