96

S    17.01000023   5.63000011  57.91999817
C    19.70000076   5.46999979  57.15000153
C    18.39999962   5.09999990  56.93999863
C    18.00000000   4.63999987  55.65000153
C    18.96999931   4.38000011  54.68999863
C    20.32999992   4.69999981  54.93000031
C    21.28999901   4.55000019  53.88999939
C    22.60999870   4.90000010  54.06999969
C    22.96999931   5.38000011  55.35999680
C    22.11000061   5.42000008  56.43000031
C    20.72000122   5.27999973  56.18000031
C    16.55999947   4.67000008  55.41999817
C    15.93000031   5.09000015  56.62000275
C    14.55000019   5.18000031  56.76000214
C    24.34000015   6.00000000  55.50000000
H    24.87330055   5.48092127  56.29639816
H    20.07999802   6.01999998  58.01000214
H    18.60000038   3.88999987  53.80000305
H    20.85000038   4.15000010  52.97999954
H    23.31000137   4.61000013  53.29999924
H    22.29999924   5.73000002  57.45999908
H    14.07999992   5.32999992  57.72999573
H    24.93000031   5.98999977  54.58000183
H    24.27000046   7.03999996  55.86000061
S    13.42000008   3.81000018  53.15000153
C    10.77999973   3.56999993  53.89999771
C    12.00000000   4.13000011  54.16999817
C    12.35000038   4.69000006  55.44000244
C    11.33999920   4.78999996  56.38000107
C    10.00000000   4.46000004  56.06999969
C     8.89999962   4.55000019  56.97000122
C     7.60999966   4.23000002  56.60999680
C     7.34000015   3.70000005  55.31999969
C     8.38000011   3.51000023  54.43999863
C     9.72000027   3.84000015  54.79999924
C    13.78000069   4.81999969  55.63999939
C    14.44000053   4.51999998  54.41999817
C    15.81999969   4.46000004  54.26000214
C     5.97000027   3.24000001  54.88999939
H     5.49504709   3.78584123  54.07478333
H    10.55999947   3.14000010  52.91999817
H    11.54999924   5.12000036  57.39999771
H     9.06999969   4.90999985  57.97999954
H     6.78999996   4.23000002  57.31999969
H     8.19000053   3.07999992  53.46000290
H    16.28000069   4.07999992  53.34999847
H     5.28999996   3.31999993  55.75000000
H     6.02999973   2.16999984  54.64000320
S    14.14000034   1.85000002  50.24000168
C    11.47999954   1.34000003  51.02000427
C    12.82999992   1.19999993  51.25000000
C    13.26000023   0.64999998  52.50000000
C    12.38000011   0.09000000  53.40000153
C    11.00000000   0.25000000  53.11999893
C    10.05000019  -0.39999998  53.95999908
C     8.69000053  -0.35999998  53.72000122
C     8.25000000   0.14999999  52.47000122
C     9.13999939   0.62000000  51.52999878
C    10.51000023   0.75999999  51.86999893
C    14.70000076   0.81000000  52.63999939
C    15.31000042   1.38999999  51.49000168
C    16.64999962   1.75000000  51.45999908
C     6.74000025   0.25999999  52.36000061
H     6.33296537   0.35283256  51.35312271
H    11.05999947   1.86000001  50.15999603
H    12.76000023  -0.44000000  54.27999878
H    10.42000008  -0.88999999  54.86000061
H     8.01999950  -0.69999999  54.50000000
H     8.85000038   1.08000004  50.59000015
H    17.07999992   2.13000011  50.54000092
H     6.37000036  -0.65999997  52.81999969
H     6.43000031   1.15999997  52.90999985
S    18.05999947   0.12000000  54.80999756
C    20.71000099   0.71999997  54.16999817
C    19.37999916   0.82999998  53.86000061
C    18.90999985   1.41000009  52.63999939
C    19.85000038   1.86000001  51.72000122
C    21.21999931   1.72000003  52.02000046
C    22.11999893   2.40999985  51.16000366
C    23.47999954   2.27999997  51.31999969
C    23.97999954   1.65999997  52.50000000
C    23.11000061   1.04999995  53.37999725
C    21.70000076   1.13999999  53.25000000
C    17.46999931   1.29999995  52.50999832
C    16.86000061   0.61000001  53.59000397
C    15.50000000   0.34000003  53.68000031
C    25.39999962   2.01999998  52.84999847
H    25.78545570   1.45609212  53.69942856
H    21.09000015   0.19999999  55.05000305
H    19.51000023   2.37000012  50.81999969
H    21.87000084   2.94999981  50.25000000
H    24.13999939   2.91000009  50.72999954
H    23.45000076   0.75000000  54.36999893
H    15.10000038  -0.34000003  54.43000031
H    25.45000076   3.08999991  53.09999847
H    26.02000046   1.88999999  51.95000076
