96

S    17.53000069   5.51000023  57.78999710
C    20.19000053   5.65000010  57.01000214
C    18.92000008   5.22000027  56.72999954
C    18.47999954   4.67999983  55.47999954
C    19.43000031   4.50000000  54.47999954
C    20.76000023   4.92000008  54.71000290
C    21.80000114   4.75000000  53.75999832
C    23.12000084   4.94999981  54.09000015
C    23.51000023   5.59000015  55.28999710
C    22.50999832   5.84000015  56.19999695
C    21.14999962   5.46999979  55.97999954
C    17.02999878   4.61999989  55.34999847
C    16.36999893   5.13000011  56.50000000
C    14.98999977   5.26999998  56.50000000
C    24.94999886   5.98000002  55.54999924
H    25.31962776   5.24784994  56.26793289
H    20.55999947   5.92999983  58.00000000
H    19.04999924   4.17000008  53.52000427
H    21.53000069   4.42999983  52.76000214
H    23.85999870   4.56999969  53.39000320
H    22.72999954   6.19999981  57.21000290
H    14.50000000   5.50000000  57.44999695
H    25.48999977   6.01000023  54.59000015
H    25.06999969   6.93000031  56.09000397
S    13.78999901   3.75000000  53.06000137
C    11.10999966   3.81000018  53.81000137
C    12.42000008   4.07999992  54.13999939
C    12.71999931   4.65000010  55.41999817
C    11.69999981   4.82999992  56.32999802
C    10.34999943   4.55000019  56.00999832
C     9.23999977   4.67999983  56.90000153
C     7.94000053   4.35999966  56.62000275
C     7.65999985   3.79999995  55.34000015
C     8.69999981   3.55999994  54.47999954
C    10.03999901   3.96000004  54.72999954
C    14.17000008   4.82999992  55.45999908
C    14.88000011   4.30000019  54.34999847
C    16.26000023   4.19000006  54.26000214
C     6.28999996   3.24000001  55.05000305
H     5.84414768   3.72123694  54.17952728
H    10.85999966   3.54999995  52.78999710
H    11.98999977   5.05000019  57.35000229
H     9.52999973   5.07000017  57.87000275
H     7.27999973   4.51999998  57.45999908
H     8.56999969   3.15000010  53.47999954
H    16.69000053   3.88999987  53.30999756
H     5.60999966   3.32999992  55.90000153
H     6.34000015   2.20000005  54.68999863
S    14.06999969   1.89999998  50.07999802
C    11.44999981   1.36000013  50.77999878
C    12.77999973   1.13999999  51.04000092
C    13.23999977   0.46000001  52.21000290
C    12.28999996   0.04000000  53.11999893
C    10.90000057   0.19999999  52.90999985
C     9.89999962  -0.32999998  53.75999832
C     8.56000042  -0.35999998  53.44999695
C     8.15999985   0.39000002  52.30999756
C     9.09000015   0.90999997  51.45000076
C    10.48999977   0.92000002  51.72999954
C    14.68000031   0.64000005  52.34000397
C    15.24000072   1.46000004  51.33999634
C    16.54999924   1.94000006  51.32999802
C     6.71999979   0.65999997  51.91999817
H     6.42876577   0.09884113  51.03208923
H    11.13000011   1.79000008  49.84000397
H    12.56000042  -0.51999998  54.02000046
H    10.18000031  -0.81000000  54.68999863
H     7.86999989  -0.59000003  54.26000214
H     8.76000023   1.51999998  50.61000061
H    16.88999939   2.47000003  50.45000076
H     6.06999969   0.29999998  52.72999573
H     6.48999977   1.72000003  51.79999924
S    18.04000092   0.28000000  54.59000015
C    20.71000099   0.69999999  53.87000275
C    19.37999916   0.97999996  53.66000366
C    18.86999893   1.67999995  52.51999664
C    19.84000015   2.05999994  51.59999847
C    21.22999954   1.86000001  51.76000214
C    22.20999908   2.46000004  50.91999817
C    23.54999924   2.46000004  51.22000122
C    23.98999977   1.74000001  52.36999893
C    23.06999969   1.19999993  53.23999786
C    21.68000031   1.19000006  52.95999908
C    17.43000031   1.58000004  52.36000061
C    16.84000015   0.85000002  53.41999817
C    15.55999947   0.31000000  53.37999725
C    25.45999908   1.47000003  52.55000305
H    25.77255058   1.47710347  53.59420776
H    21.01000023   0.17000002  54.78000259
H    19.52000046   2.73000002  50.80999756
H    21.93000031   3.07999992  50.07999802
H    24.33000183   2.82999992  50.56000137
H    23.38999939   0.69000000  54.13999939
H    15.22999954  -0.28999999  54.22000122
H    25.90999985   2.25000000  51.91999817
H    25.76000023   0.50000000  52.11999893
