96

S    17.00000000   5.65999985  57.78999710
C    19.65999985   5.46000004  57.11999893
C    18.36000061   5.23000002  56.73999786
C    18.00000000   4.65000010  55.47999954
C    19.02000046   4.30999994  54.59999847
C    20.36999893   4.53999996  54.93000031
C    21.40999985   4.55000019  53.95999908
C    22.72999954   4.85000038  54.22999954
C    23.01000214   5.29999971  55.54999924
C    22.01999855   5.53999996  56.46999741
C    20.69999886   5.09000015  56.22000122
C    16.55999947   4.53000021  55.34999847
C    15.93000031   5.01999950  56.52999878
C    14.55000019   4.97000027  56.60999680
C    24.40999985   5.82999992  55.75000000
H    24.95011330   5.27567434  56.51752853
H    19.78999901   6.06999969  58.01000214
H    18.82999992   4.01999998  53.56999969
H    21.11000061   4.21000004  52.97000122
H    23.46999931   4.69000006  53.46000290
H    22.15999985   6.25000000  57.29000092
H    14.19000053   5.21000004  57.61000061
H    24.96000099   5.84999990  54.79999924
H    24.30000114   6.86999989  56.06999969
S    13.31999969   4.03999996  53.02000046
C    10.57999992   4.09000015  53.74000168
C    11.90999985   4.23999977  54.08000183
C    12.25999928   4.46999979  55.45000076
C    11.26000023   4.74000025  56.36000061
C     9.88000011   4.63000011  56.04999924
C     8.92000008   4.48000002  57.09000015
C     7.69000006   3.96000004  56.73999786
C     7.28999996   3.81000018  55.38999939
C     8.23000050   3.84999990  54.38000107
C     9.53999996   4.30000019  54.68999863
C    13.71000099   4.55000019  55.58000183
C    14.42000008   4.15999985  54.40999985
C    15.80000019   4.07999992  54.27000046
C     5.91000032   3.28999996  55.06000137
H     5.47724199   3.87883472  54.25123978
H    10.29999924   3.70000005  52.77000046
H    11.56999969   4.80999994  57.39999771
H     9.17000008   4.71000004  58.11999893
H     6.96000004   3.74000025  57.51999664
H     8.05999947   3.33999991  53.43999863
H    16.23999977   3.70000005  53.34999847
H     5.23999977   3.38000011  55.93000031
H     5.86999989   2.23000002  54.79999924
S    13.96000004   2.02999997  50.31999969
C    11.35000038   1.44999993  51.04999924
C    12.69000053   1.25999999  51.29000092
C    13.10999966   0.61000001  52.49000168
C    12.18000031  -0.02000000  53.29000092
C    10.78999996   0.05000000  53.02000046
C     9.81000042  -0.64999998  53.77999878
C     8.47000027  -0.46999997  53.50000000
C     8.05999947   0.19999999  52.31999969
C     8.98999977   0.88000000  51.56999969
C    10.38000011   0.82000005  51.86999893
C    14.53999996   0.83999997  52.63000107
C    15.14999962   1.51999998  51.53999710
C    16.48999977   1.90999997  51.55000305
C     6.57000017   0.25999999  52.05999756
H     6.19961357  -0.13175523  51.11266327
H    10.93000031   1.92000008  50.15999603
H    12.51000023  -0.79999995  53.96999741
H    10.31000042  -1.11000001  54.62999725
H     7.73000002  -0.81000000  54.22000122
H     8.71000004   1.54999995  50.76000214
H    16.77999878   2.37000012  50.61000061
H     6.02999973  -0.32000002  52.81999969
H     6.21000004   1.28999996  52.04000092
S    17.98999977   0.19000000  54.75999832
C    20.66999817   0.79000002  54.09999847
C    19.32999992   0.90999997  53.83999634
C    18.78999901   1.53999996  52.67000198
C    19.61000061   1.98000002  51.63999939
C    21.01000023   1.87000012  51.86000061
C    21.90000153   2.61000013  51.03000259
C    23.25000000   2.73999977  51.23000336
C    23.71000099   2.11999989  52.42000198
C    22.92000008   1.41000009  53.29999924
C    21.51000023   1.33000004  53.09999847
C    17.34000015   1.48000002  52.56999969
C    16.73999977   0.74000001  53.62999725
C    15.39000034   0.45000002  53.67000198
C    25.20000076   2.10999990  52.63999939
H    25.48428154   1.74754012  53.62788010
H    21.05999947   0.34000003  55.00999832
H    19.19000053   2.56000018  50.83000183
H    21.47000122   3.09999990  50.15999603
H    23.92999840   3.17000008  50.50000000
H    23.31000137   0.97000003  54.20999908
H    15.03999901  -0.17000002  54.48999786
H    25.50000000   3.17000008  52.52999878
H    25.62999916   1.48000002  51.84000015
