96

S    17.21999931   5.46000004  57.84999847
C    19.79999924   5.88999987  57.11999893
C    18.59000015   5.36000013  56.72999954
C    18.31999969   4.72000027  55.47999954
C    19.34999847   4.61000013  54.56999969
C    20.61000061   5.15999985  54.88999939
C    21.77000046   4.88000011  54.10999680
C    23.05999947   5.26000023  54.40000153
C    23.22999954   5.97000027  55.61999893
C    22.17000008   6.19000006  56.46999741
C    20.84000015   5.78000021  56.17000198
C    16.87000084   4.55000019  55.40000153
C    16.13999939   4.88000011  56.56999969
C    14.75000000   4.85000038  56.65999985
C    24.63000107   6.34999990  56.05999756
H    25.00090981   5.76510429  56.90167618
H    19.93000031   6.37000036  58.09000015
H    19.18000031   4.15000010  53.60000229
H    21.63000107   4.30999994  53.18999863
H    23.88999939   4.88000011  53.81999969
H    22.26000023   6.52999973  57.50000000
H    14.32000065   5.03000021  57.63999939
H    25.26000023   6.38999987  55.17000198
H    24.61999893   7.39000034  56.43000031
S    13.63000011   3.76999998  52.97999954
C    10.95000076   3.40999985  53.75000000
C    12.23000050   3.81000018  54.06000137
C    12.56999969   4.30999994  55.35999680
C    11.51999950   4.50000000  56.23000336
C    10.17000008   4.18000031  55.93000031
C     9.10000038   4.41000032  56.83000183
C     7.82000017   4.02999973  56.49000168
C     7.50000000   3.44000006  55.24000168
C     8.51000023   3.28000021  54.33000183
C     9.85999966   3.60000014  54.65000153
C    14.01000023   4.51999998  55.52000046
C    14.70999908   4.13999987  54.34000015
C    16.09000015   4.15000010  54.31000137
C     6.05999994   3.07000017  54.93000031
H     5.68249130   3.78228092  54.19635010
H    10.77999973   3.12999988  52.71999741
H    11.78999996   4.77999973  57.25000000
H     9.26999950   4.86999989  57.80000305
H     7.07999992   4.03999996  57.28000259
H     8.21000004   2.89000010  53.36000061
H    16.54000092   3.86000013  53.36000061
H     5.58000040   3.21000004  55.90000153
H     6.06999969   2.03999996  54.56999969
S    14.09999943   1.93000007  50.14999771
C    11.46999931   1.13999999  50.70000076
C    12.79999924   1.10000002  51.02000427
C    13.25000000   0.37000000  52.18000031
C    12.27000046  -0.08000001  53.04000092
C    10.88999939  -0.01000000  52.77000046
C     9.90999985  -0.59999996  53.61999893
C     8.56000042  -0.43000001  53.40999985
C     8.15999985   0.37000000  52.30999756
C     9.06000042   0.75999999  51.33999634
C    10.46000004   0.57999998  51.52000046
C    14.70000076   0.39999998  52.28000259
C    15.26999950   1.28999996  51.31999969
C    16.55999947   1.76999998  51.44000244
C     6.71999979   0.79999995  52.11999893
H     6.25712538   0.45818508  51.19425201
H    11.19999981   1.77999997  49.86000061
H    12.56000042  -0.65999997  53.90999603
H    10.19000053  -1.26999998  54.43000031
H     7.77999973  -0.87000000  54.02000046
H     8.76999950   1.26999998  50.43000031
H    16.97999954   2.42000008  50.66999817
H     6.11000013   0.46000001  52.95999908
H     6.80000019   1.88999999  52.19999695
S    17.97999954  -0.09000000  54.58000183
C    20.65999985   0.69999999  53.99000168
C    19.30999947   0.75000000  53.75999832
C    18.79999924   1.50999999  52.64999771
C    19.65999985   2.24000001  51.84999847
C    21.05999947   2.13000011  52.02000046
C    22.01000023   2.75000000  51.16000366
C    23.36999893   2.66999984  51.33999634
C    23.87000084   1.98000002  52.48000336
C    22.96999931   1.34000003  53.29999924
C    21.56999969   1.28999996  53.06999969
C    17.38999939   1.24000001  52.43999863
C    16.77000046   0.35999998  53.36000061
C    15.44999981  -0.09999999  53.34999847
C    25.35000038   1.97000003  52.74000168
H    25.64845848   1.68575382  53.74907303
H    21.18000031   0.23000000  54.81999969
H    19.27999878   2.76999998  50.97999954
H    21.56999969   3.25000000  50.30000305
H    24.01000023   3.05000019  50.54000092
H    23.32999992   0.90999997  54.22999954
H    15.01000023  -0.69999999  54.13000107
H    25.76999855   2.98000002  52.57999802
H    25.75000000   1.26999998  52.00000000
