96

S    17.13000107   5.05000019  58.13000107
C    19.85000038   5.05999994  57.48000336
C    18.55999947   4.75000000  57.12999725
C    18.19000053   4.28999996  55.81999969
C    19.18000031   4.23000002  54.85000229
C    20.53999901   4.42000008  55.19000244
C    21.60000038   4.32000017  54.25000000
C    22.90999985   4.63000011  54.54000092
C    23.22000122   5.14999962  55.81999969
C    22.21999931   5.26999998  56.76000214
C    20.86999893   4.92999983  56.50000000
C    16.77999878   4.41000032  55.51000214
C    16.11999893   4.86000013  56.69000244
C    14.73000050   4.92999983  56.72000122
C    24.57999992   5.69999981  56.18999863
H    25.05705643   5.06629896  56.93762207
H    20.13000107   5.55000019  58.40999985
H    18.77000046   3.82999992  53.92000198
H    21.34000015   3.95000005  53.26000214
H    23.67000198   4.59999990  53.75999832
H    22.34000015   5.58000040  57.80000305
H    14.21000004   5.33999968  57.57999802
H    25.28000069   5.86000013  55.37000275
H    24.48999786   6.71000004  56.60999680
S    13.50000000   3.58999991  53.16999817
C    10.77999973   3.68999982  53.82999802
C    12.09000015   3.98000002  54.15999985
C    12.53000069   4.36999989  55.47000122
C    11.56999969   4.48999977  56.45000076
C    10.19999981   4.28999996  56.14999771
C     9.21000004   4.39000034  57.16999817
C     7.88000011   4.15999985  56.90999985
C     7.48000050   3.71000004  55.63000107
C     8.42000008   3.56999993  54.62999725
C     9.80000019   3.91000009  54.81999969
C    13.96999931   4.55999994  55.59999847
C    14.63999939   4.07999992  54.43999863
C    16.03000069   4.07000017  54.38000107
C     6.02999973   3.42000008  55.31000137
H     5.63173485   3.88227177  54.40679169
H    10.48999977   3.33999991  52.84000015
H    11.85999966   4.74000025  57.47000122
H     9.48999977   4.55000019  58.20999908
H     7.07999992   4.09000015  57.64999771
H     8.14999962   3.02999997  53.73000336
H    16.53000069   3.65000010  53.50999832
H     5.49000025   3.84000015  56.16000366
H     5.77000046   2.34999990  55.26000214
S    13.75000000   1.64000010  50.37000275
C    11.05999947   1.18000007  50.96000290
C    12.38000011   0.97999996  51.30000305
C    12.88000011   0.39000002  52.50000000
C    11.89000034  -0.11000000  53.33000183
C    10.51000023  -0.01000000  53.02999878
C     9.43000031  -0.61000001  53.74000168
C     8.10999966  -0.29999998  53.47999954
C     7.73000002   0.62000000  52.47000122
C     8.71999931   1.11000001  51.65999985
C    10.07999992   0.75999999  51.90000153
C    14.32999992   0.39000002  52.63000107
C    14.93999958   1.14999998  51.59999847
C    16.27000046   1.51999998  51.68000031
C     6.24000025   0.75999999  52.25999832
H     5.93471432   0.41211665  51.27314758
H    10.80999947   1.74000001  50.06000137
H    12.13999939  -0.71999997  54.20000076
H     9.72999954  -1.11000001  54.65000153
H     7.35000038  -0.79000002  54.09000015
H     8.42000008   1.51999998  50.70000076
H    16.72999954   2.19000006  50.96000290
H     5.69999981   0.14000000  52.97999954
H     5.95000029   1.80999994  52.37999725
S    17.69000053  -0.17000002  54.98000336
C    20.34000015   0.44000000  54.43000031
C    19.02000046   0.50999999  54.03999710
C    18.53000069   1.08000004  52.81999969
C    19.54000092   1.58999991  52.02999878
C    20.93000031   1.47000003  52.27000427
C    21.96000099   1.94000006  51.40999603
C    23.29000092   1.71000004  51.65999985
C    23.71000099   1.00000000  52.81999969
C    22.72999954   0.65999997  53.73000336
C    21.34000015   0.83999997  53.50000000
C    17.09000015   0.94999999  52.67000198
C    16.47999954   0.28000000  53.75999832
C    15.14000034  -0.09000000  53.66000366
C    25.13999939   0.56999999  53.06000137
H    25.56694031   0.98982537  53.97080994
H    20.62000084  -0.19999999  55.26000214
H    19.26000023   1.97000003  51.04999924
H    21.70999908   2.63999987  50.61000061
H    24.06999969   2.00000000  50.96000290
H    22.95000076   0.19000000  54.68000031
H    14.65999985  -0.69000000  54.41999817
H    25.79000092   0.93999994  52.25999832
H    25.22000122  -0.51999998  53.11000061
