96

S    17.10000038   5.49000025  57.78999710
C    19.78000069   5.49000025  57.02000046
C    18.46999931   5.26999998  56.68000031
C    18.07999992   4.76000023  55.40000153
C    19.05999947   4.51999998  54.43999863
C    20.43000031   4.61999989  54.78000259
C    21.50000000   4.53999996  53.85000229
C    22.80999947   4.72000027  54.22000122
C    23.12999916   5.07000017  55.56000137
C    22.13999939   5.23000002  56.50000000
C    20.78000069   5.09000015  56.10000229
C    16.63999939   4.59999990  55.30000305
C    15.98999977   5.09999990  56.45999908
C    14.60999966   5.19999981  56.55000305
C    24.47000122   5.63000011  56.00999832
H    24.95344543   5.05413342  56.79914856
H    19.96000099   5.75999975  58.06000137
H    18.78000069   4.28000021  53.41999817
H    21.22999954   4.39000034  52.81000137
H    23.55999947   4.65999985  53.43999863
H    22.29999924   5.58000040  57.50999832
H    14.06999969   5.59999990  57.41000366
H    25.10999870   5.68000031  55.12000275
H    24.44000053   6.67000008  56.35000229
S    13.30999947   3.88999987  53.01000214
C    10.67000008   4.05999994  53.75999832
C    11.97999954   4.34999990  54.08000183
C    12.36999989   4.88000011  55.34999847
C    11.43000031   5.07000017  56.35000229
C    10.07999992   4.71000004  56.09000397
C     9.01000023   4.96000004  56.98999786
C     7.73000002   4.51999998  56.72000122
C     7.46000004   3.82999992  55.51000214
C     8.43000031   3.63999987  54.55999756
C     9.71000004   4.19000006  54.79999924
C    13.81999969   4.78999996  55.47000122
C    14.46000004   4.30999994  54.29999924
C    15.84000015   4.23999977  54.20999908
C     6.05000019   3.28999996  55.34000015
H     5.45926094   3.80956602  54.58555984
H    10.31000042   3.61000013  52.84000015
H    11.75000000   5.32000017  57.36000061
H     9.18000031   5.21000004  58.02999878
H     6.94999981   4.48999977  57.48000336
H     8.14999962   3.10999990  53.64999771
H    16.38000107   3.93000007  53.31999969
H     5.50000000   3.37000012  56.27999878
H     6.19999981   2.23000002  55.10000229
S    13.96000004   1.87000012  50.28999710
C    11.26999950   1.48000002  51.02000427
C    12.61000061   1.31999993  51.29000092
C    13.12000084   0.75000000  52.50000000
C    12.18000031   0.27000001  53.40000153
C    10.80999947   0.19999999  53.06000137
C     9.86999989  -0.34000003  53.96999741
C     8.51000023  -0.25000000  53.75000000
C     8.05999947   0.44000000  52.60000229
C     8.93000031   0.88999999  51.63000107
C    10.32999992   0.79999995  51.84000015
C    14.56999969   0.79000002  52.65999603
C    15.14000034   1.46000004  51.56000137
C    16.50000000   1.75000000  51.52999878
C     6.57999992   0.74000001  52.44999695
H     6.19702291   0.40666804  51.48546600
H    11.02000046   2.07999992  50.14999771
H    12.53999901  -0.11000000  54.36000061
H    10.18000031  -0.71000004  54.94999695
H     7.88999987  -0.68000007  54.52999878
H     8.45000076   1.43999994  50.81999969
H    16.90999985   2.38000011  50.75000000
H     6.02999973   0.17000002  53.20999908
H     6.43000031   1.80999994  52.58999634
S    17.97999954   0.16000001  54.87999725
C    20.61000061   0.71999997  54.10999680
C    19.27000046   0.76999998  53.82999802
C    18.77000046   1.31999993  52.61000061
C    19.69000053   1.76999998  51.69000244
C    21.09000015   1.69000006  51.90999985
C    22.04999924   2.25000000  51.02000427
C    23.36000061   2.54999995  51.31999969
C    23.85000038   2.02999997  52.54000092
C    22.96999931   1.36999989  53.36000061
C    21.55999947   1.22000003  53.18999863
C    17.30999947   1.34000003  52.60000229
C    16.73999977   0.69000000  53.73000336
C    15.38000011   0.41999999  53.74000168
C    25.26000023   2.48000002  52.85999680
H    25.71502304   1.85434163  53.62785339
H    21.00000000   0.34000003  55.05000305
H    19.22000122   2.17999983  50.79000092
H    21.65999985   2.68000007  50.10000229
H    23.95000076   3.21000004  50.68000031
H    23.29999924   1.24000001  54.38999939
H    14.86999989  -0.07000000  54.56999969
H    25.27000046   3.53999996  53.11999893
H    25.75000000   2.33999991  51.88999939
