96

S    17.39999962   5.59999990  57.65999603
C    20.15000153   5.49000025  56.93999863
C    18.82999992   5.15999985  56.70000076
C    18.43000031   4.57999992  55.45000076
C    19.45000076   4.30000019  54.55999756
C    20.81000137   4.55000019  54.84000397
C    21.86000061   4.33999968  53.88999939
C    23.15999985   4.71000004  54.10999680
C    23.47999954   5.31000042  55.34999847
C    22.56999969   5.53999996  56.36000061
C    21.21999931   5.18000031  56.06999969
C    16.97999954   4.53999996  55.31999969
C    16.26000023   5.03000021  56.43000031
C    14.86999989   5.05999994  56.49000168
C    24.73999977   6.12999964  55.52000046
H    25.37279510   5.71050596  56.30210876
H    20.38000107   5.97000027  57.88999939
H    19.13999939   3.84000015  53.62999725
H    21.57999992   3.91000009  52.93000031
H    23.92000008   4.77999973  53.33000183
H    22.77000046   6.05999994  57.29000092
H    14.32000065   5.40000010  57.36000061
H    25.22999954   6.03999996  54.54999924
H    24.48999786   7.18999958  55.72000122
S    13.75000000   3.74000025  52.91999817
C    11.05000019   3.58000016  53.69999695
C    12.35000038   3.89999986  54.00000000
C    12.69000053   4.48999977  55.26000214
C    11.69999981   4.72000027  56.19999695
C    10.36000061   4.42999983  55.86999893
C     9.34000015   4.61999989  56.84000015
C     8.02999973   4.30000019  56.56999969
C     7.67000008   3.65000010  55.35999680
C     8.64999962   3.42000008  54.40999985
C     9.98000050   3.86999989  54.59999847
C    14.13000011   4.65999985  55.37000275
C    14.85000038   4.23000002  54.22999954
C    16.22999954   4.07999992  54.22000122
C     6.30999994   3.03999996  55.10000229
H     5.72397470   3.59029222  54.36389542
H    10.82999992   3.14000010  52.72999573
H    11.94000053   5.10999966  57.18999863
H     9.56999969   4.73000002  57.88999939
H     7.34000015   4.30999994  57.41000366
H     8.36000061   2.87999988  53.52000427
H    16.72000122   3.81999993  53.29000092
H     5.77000046   3.03999996  56.05999756
H     6.42000008   2.01999998  54.72999954
S    13.83999920   1.85000002  50.20000076
C    11.21999931   1.01999998  50.65999985
C    12.53999901   1.01999998  51.06999969
C    13.01000023   0.50999999  52.31999969
C    12.10999966   0.03000000  53.25000000
C    10.76000023  -0.01000000  52.84000015
C     9.73999977  -0.32000002  53.77999878
C     8.38999939  -0.27000001  53.50999832
C     7.97999954   0.25000000  52.25999832
C     8.89000034   0.59999996  51.27999878
C    10.26999950   0.54000002  51.59999847
C    14.45000076   0.61000001  52.50999832
C    15.01999950   1.29999995  51.40999603
C    16.36000061   1.64000010  51.47999573
C     6.52999973   0.61000001  52.04000092
H     6.06057501   0.13346258  51.17938995
H    10.84000015   1.61000001  49.82999802
H    12.23000050   0.05000000  54.33000183
H     9.94999981  -0.43000001  54.84000397
H     7.67000008  -0.28000000  54.31999969
H     8.67999935   1.13999999  50.35999680
H    16.79000092   2.09999990  50.59000015
H     5.95000029   0.34999999  52.94000244
H     6.48999977   1.71000004  52.02999878
S    17.79000092   0.03000000  54.79000092
C    20.43999863   0.68000007  54.15999985
C    19.11000061   0.71999997  53.81999969
C    18.60999870   1.38000000  52.64999771
C    19.55000114   1.94999993  51.81000137
C    20.93000031   1.69000006  51.95999908
C    21.94999886   2.11999989  51.06999969
C    23.28000069   1.87999988  51.33999634
C    23.68999863   1.19999993  52.50999832
C    22.75000000   0.73000002  53.40000153
C    21.38000107   1.03999996  53.16999817
C    17.15999985   1.26999998  52.56999969
C    16.54000092   0.57999998  53.64999771
C    15.19000053   0.25999999  53.64999771
C    25.15000153   0.90999997  52.78999710
H    25.52096367   1.47358048  53.64607239
H    20.63999939   0.07000000  55.04000092
H    19.22000122   2.50999975  50.93999863
H    21.75000000   2.82000017  50.26000214
H    24.03000069   2.10999990  50.58000183
H    23.02000046   0.13000000  54.26000214
H    14.77000046  -0.28000000  54.48999786
H    25.72000122   1.29999995  51.93000031
H    25.29000092  -0.16000001  52.93000031
