96

S    17.28000069   5.66999960  57.81000137
C    19.96000099   5.75000000  57.09999847
C    18.67000008   5.38999987  56.75000000
C    18.35000038   4.69000006  55.54000092
C    19.37000084   4.36999989  54.66999817
C    20.69999886   4.71000004  54.99000168
C    21.77999878   4.55000019  54.06999969
C    23.08000183   4.92000008  54.33000183
C    23.35000038   5.64000034  55.52000046
C    22.32000160   5.95000029  56.38000107
C    20.98999977   5.47999954  56.17000198
C    16.90999985   4.48000002  55.48999786
C    16.18000031   5.00000000  56.59000015
C    14.78999996   5.03000021  56.68000031
C    24.70999908   6.25000000  55.72999954
H    25.19444466   5.68718910  56.52790833
H    20.13999939   6.25999975  58.04000092
H    19.12999916   3.96000004  53.68999863
H    21.54999924   4.26000023  53.04999924
H    23.69999886   4.86000013  53.43999863
H    22.49000168   6.57000017  57.25000000
H    14.26000023   5.38999987  57.55000305
H    25.30999947   6.17000008  54.80999756
H    24.70000076   7.30000019  56.05999756
S    13.64999962   3.47000003  53.18999863
C    10.95000076   3.47000003  53.93000031
C    12.23000050   3.91000009  54.15999985
C    12.61999989   4.51000023  55.40000153
C    11.59999943   4.71000004  56.31000137
C    10.26000023   4.36999989  56.02000427
C     9.19000053   4.65000010  56.91999817
C     7.90999985   4.18000031  56.81000137
C     7.51999950   3.61000013  55.56000137
C     8.50000000   3.38000011  54.61999893
C     9.85000038   3.82999992  54.75000000
C    14.06999969   4.59999990  55.54999924
C    14.75999928   4.18000031  54.38999939
C    16.13999939   4.05000019  54.40000153
C     6.12999964   3.12999988  55.24000168
H     5.59673357   3.67037654  54.45787430
H    10.90999985   2.72000027  53.15000153
H    11.84999943   5.19999981  57.23999786
H     9.39000034   5.25000000  57.80000305
H     7.17000008   4.21000004  57.60000229
H     8.23999977   2.86999989  53.69999695
H    16.67000008   3.78999996  53.47999954
H     5.61999989   3.24000001  56.20999908
H     6.19999981   2.04999995  55.06000137
S    13.73999977   1.90999997  50.13999939
C    11.09000015   1.34000003  50.75000000
C    12.42000008   1.13999999  51.04000092
C    12.89999962   0.45000002  52.18999863
C    11.95000076   0.00000000  53.09999847
C    10.55999947   0.17000002  52.88000107
C     9.52999973  -0.25999999  53.76999664
C     8.18000031  -0.09999999  53.57999802
C     7.81000042   0.29999998  52.27000427
C     8.75000000   0.87000000  51.43000031
C    10.14000034   0.87000000  51.70000076
C    14.34000015   0.61000001  52.25999832
C    15.00000000   1.38999999  51.27999878
C    16.35000038   1.74000001  51.27999878
C     6.32999992   0.39000002  51.97999954
H     6.11032009  -0.22652075  51.10836792
H    10.71000004   1.74000001  49.80999756
H    12.22000027  -0.59000003  53.96999741
H     9.78999996  -0.90999997  54.61000061
H     7.44000006  -0.44000000  54.29000092
H     8.40999985   1.29999995  50.48999786
H    16.76000023   2.37000012  50.50000000
H     5.60999966   0.23000000  52.78999710
H     6.15000010   1.46000004  51.81000137
S    17.64999962   0.05000000  54.65000153
C    20.36000061   0.56000000  53.95999908
C    19.01000023   0.67000002  53.69999695
C    18.54999924   1.36999989  52.54000092
C    19.51000023   2.04999995  51.79999924
C    20.89999962   1.90999997  51.98999786
C    21.87000084   2.51999998  51.13999939
C    23.16999817   2.19000006  51.42000198
C    23.64999962   1.43999994  52.52999878
C    22.72000122   0.96000004  53.41999817
C    21.34000015   1.14999998  53.13000107
C    17.11000061   1.28999996  52.36999893
C    16.47999954   0.56999999  53.40999985
C    15.14000034   0.20999999  53.34000015
C    25.09000015   1.08999991  52.84000015
H    25.52419472   1.51707804  53.74398041
H    20.69000053   0.06000000  54.86999893
H    19.18000031   2.71000004  51.00000000
H    21.48999977   3.09999990  50.30000305
H    23.97000122   2.45000005  50.72999954
H    23.08000183   0.46999997  54.31999969
H    14.78999996  -0.19999999  54.27999878
H    25.66999817   1.30999994  51.93999863
H    25.03000069   0.01000000  53.02000046
