96

S    16.92000008   5.15999985  57.95000076
C    19.68000031   5.12000036  57.35000229
C    18.37000084   4.97000027  56.95000076
C    17.95999908   4.69000006  55.61000061
C    19.00000000   4.38000011  54.73999786
C    20.36000061   4.53000021  55.08999634
C    21.37000084   4.38000011  54.09999847
C    22.65999985   4.69000006  54.43999863
C    23.05999947   5.09000015  55.73999786
C    22.07999992   5.18000031  56.70999908
C    20.72999954   4.80999994  56.45000076
C    16.53000069   4.59000015  55.34999847
C    15.85000038   4.92000008  56.55000305
C    14.46000004   4.88000011  56.63999939
C    24.44999886   5.65000010  55.93999863
H    24.97895432   5.24971056  56.80491257
H    19.85000038   5.47999954  58.36000061
H    18.75000000   4.15000010  53.70999908
H    21.02000046   4.30999994  53.06999969
H    23.36000061   4.72000027  53.60000229
H    22.19000053   5.73999977  57.63999939
H    13.82999992   5.07999992  57.50000000
H    24.96000099   5.50000000  54.98000336
H    24.27999878   6.70000029  56.18000031
S    13.36999989   3.93000007  52.91999817
C    10.67000008   3.79999995  53.56999969
C    11.95000076   4.05999994  53.97999573
C    12.34000015   4.36999989  55.33000183
C    11.30000019   4.55000019  56.22000122
C     9.94999981   4.36999989  55.84999847
C     8.82999992   4.59000015  56.70999908
C     7.51999950   4.34999990  56.37000275
C     7.26000023   3.75000000  55.11000061
C     8.27999973   3.54999995  54.20999908
C     9.61999989   3.89999986  54.52999878
C    13.78000069   4.44999981  55.48999786
C    14.47999954   4.15000010  54.29000092
C    15.85999966   4.21000004  54.18000031
C     5.84000015   3.33999991  54.77000427
H     5.43280697   4.02579880  54.02705383
H    10.40999985   3.45000005  52.57999802
H    11.49000072   4.88000011  57.23999786
H     9.06999969   4.88999987  57.72999573
H     6.71000004   4.46000004  57.06999969
H     8.05999947   3.17999983  53.20999908
H    16.31000137   3.91000009  53.23999786
H     5.23000002   3.45999980  55.66999817
H     5.84000015   2.27999997  54.45999908
S    17.73999977   5.92000008  51.81999969
C    20.48000145   5.98000002  51.12999725
C    19.17000008   5.69000006  50.80999756
C    18.85000038   5.10999966  49.54000092
C    19.84000015   4.86000013  48.60000229
C    21.17000198   5.26999998  48.85000229
C    22.17000008   5.27999973  47.84000015
C    23.48999977   5.51000023  48.16999817
C    23.78999901   5.95000029  49.48999786
C    22.81999969   6.23000050  50.41999817
C    21.47999954   5.82000017  50.13999939
C    17.42000008   5.01999950  49.33000183
C    16.69000053   5.49000025  50.45000076
C    15.29999924   5.49000025  50.52000046
C    25.25000000   6.25000000  49.75000000
H    25.66952133   5.56027842  50.48238373
H    20.72999954   6.43000031  52.09000015
H    19.60000038   4.44999981  47.62000275
H    21.76000214   4.88000011  46.91999817
H    24.31999969   5.17000008  47.56000137
H    23.03999901   6.71999979  51.36000061
H    14.75999928   5.68000031  51.44000244
H    25.65999985   6.11999989  48.75000000
H    25.43000031   7.30999994  50.00000000
S    14.15999985   4.15999985  47.02000046
C    11.43000031   4.34999990  47.68000031
C    12.75000000   4.59000015  48.00000000
C    13.10999966   5.12000036  49.27999878
C    12.07999992   5.26999998  50.18000031
C    10.70000076   5.09000015  49.91000366
C     9.67000008   5.28999996  50.86999893
C     8.38000011   4.98000002  50.50000000
C     8.07999992   4.40000010  49.23999786
C     9.06000042   4.13000011  48.31999969
C    10.38000011   4.59999990  48.59000397
C    14.55999947   5.09999990  49.38999939
C    15.31000042   4.65999985  48.27000046
C    16.69999886   4.53999996  48.22999954
C     6.67999983   3.88999987  48.96999741
H     6.15842819   4.51874399  48.24837112
H    11.18999958   3.76999998  46.79000092
H    12.34000015   5.56999969  51.18999863
H     9.89000034   5.59999990  51.88999939
H     7.60999966   5.14999962  51.24000168
H     8.89999962   3.58000016  47.38999939
H    17.23999977   4.19000006  47.35000229
H     6.11999989   3.82999992  49.91000366
H     6.65000010   2.86999989  48.55999756
