96

S    17.18000031   5.50000000  58.01000214
C    19.88999939   5.59999990  57.41000366
C    18.63999939   5.13999987  57.05999756
C    18.31999969   4.44999981  55.84999847
C    19.34000015   4.30000019  54.92000198
C    20.65999985   4.69000006  55.21999741
C    21.75000000   4.55000019  54.29999924
C    23.03999901   4.86000013  54.65000153
C    23.26000023   5.45000029  55.91999817
C    22.25000000   5.73999977  56.79999924
C    20.92000008   5.33999968  56.47999573
C    16.90000153   4.51000023  55.54000092
C    16.15999985   5.03000021  56.63000107
C    14.77000046   5.09999990  56.66999817
C    24.69000053   5.78000021  56.30000305
H    25.21019936   5.08165026  56.95559692
H    20.19000053   6.17999983  58.27999878
H    19.11000061   3.78999996  53.99000168
H    21.59000015   4.05000019  53.34999847
H    23.85999870   4.51999998  54.02999878
H    22.50000000   6.03999996  57.81000137
H    14.11999893   5.50000000  57.43999863
H    25.29999924   5.97000027  55.40999985
H    24.57999992   6.71999979  56.84000015
S    13.71999931   3.70000005  53.09999847
C    11.00999928   3.74000025  53.75000000
C    12.30000019   4.07000017  54.09999847
C    12.61999989   4.56999969  55.40000153
C    11.59999943   4.81999969  56.30000305
C    10.25000000   4.59000015  55.93999863
C     9.19999981   4.65999985  56.88999939
C     7.95000029   4.15000010  56.60999680
C     7.62000036   3.67000008  55.31999969
C     8.63000011   3.53999996  54.38999939
C     9.94999981   3.98000002  54.65999985
C    14.06999969   4.65000010  55.54999924
C    14.80000019   4.15000010  54.43999863
C    16.18999863   4.15000010  54.38999939
C     6.25000000   3.07999992  55.06000137
H     5.72295713   3.61416531  54.26943588
H    10.80999947   3.03999996  52.94000244
H    11.95000076   5.19999981  57.25999832
H     9.44999981   4.94000006  57.90999985
H     7.17999983   4.13000011  57.37999725
H     8.50000000   3.12000012  53.40000153
H    16.65999985   3.86999989  53.44999695
H     5.65999985   3.08999991  55.97000122
H     6.38000011   2.03999996  54.72999954
S    17.56999969   5.86999989  52.14000320
C    20.27000046   6.01000023  51.55000305
C    19.02000046   5.59999990  51.14999771
C    18.68000031   5.19000006  49.81999969
C    19.61000061   5.21000004  48.80000305
C    20.94000053   5.44000053  49.22999954
C    22.00000000   5.22000027  48.30999756
C    23.31000137   5.45000029  48.67000198
C    23.57999992   6.05999994  49.93000031
C    22.60000038   6.32000017  50.86000061
C    21.28000069   5.88000011  50.56000137
C    17.22999954   5.10999966  49.66999817
C    16.46999931   5.46000004  50.80999756
C    15.07999992   5.50000000  50.79000092
C    24.97999954   6.53999996  50.22999573
H    25.50019836   5.88440800  50.92834473
H    20.45000076   6.51000023  52.50000000
H    19.26000023   4.88999987  47.83000183
H    21.80000114   4.92999983  47.29000092
H    24.11000061   5.25000000  47.95999908
H    22.84000015   6.81999969  51.79000092
H    14.59000015   5.64000034  51.73999786
H    25.53999901   6.90000010  49.36000061
H    24.80999947   7.50000000  50.72999954
S    14.11000061   4.46000004  47.06999969
C    11.35000038   4.33999968  47.70000076
C    12.64000034   4.65000010  48.04999924
C    12.94000053   5.18000031  49.34000015
C    11.96000004   5.23999977  50.31999969
C    10.62000084   4.99000025  49.93000031
C     9.61999989   5.09000015  50.93999863
C     8.31999969   4.79999971  50.59999847
C     7.96000004   4.38000011  49.29000092
C     8.93000031   4.21000004  48.31999969
C    10.27999973   4.57999992  48.60000229
C    14.37000084   5.26000023  49.61000061
C    15.11999989   4.92000008  48.46000290
C    16.51000023   4.88999987  48.48999786
C     6.48999977   4.05999994  49.15999985
H     6.04735422   4.60259724  48.32468414
H    11.21999931   3.91000009  46.70999908
H    12.18000031   5.56999969  51.32999802
H     9.96999931   5.33999968  51.93999863
H     7.53999996   4.90000010  51.33999634
H     8.63000011   3.91000009  47.31999969
H    16.97000122   4.63000011  47.54000092
H     6.07999992   4.32999992  50.13999939
H     6.32999992   2.99000001  49.00000000
