96

S    17.28000069   5.40999985  57.88000107
C    20.02000046   5.22000027  57.37999725
C    18.72999954   5.14999962  56.88999939
C    18.40999985   4.76000023  55.54999924
C    19.45000076   4.40000010  54.72000122
C    20.79000092   4.65000010  55.10000229
C    21.86000061   4.44000006  54.19000244
C    23.13999939   4.76000023  54.58000183
C    23.36999893   5.33999968  55.86000061
C    22.36999893   5.56999969  56.77999878
C    21.04999924   5.18000031  56.40999603
C    16.97000122   4.65999985  55.34999847
C    16.23999977   5.15999985  56.45999908
C    14.86999989   5.40000010  56.43000031
C    24.82000160   5.68000031  56.13999939
H    25.22669601   5.10919857  56.97479630
H    20.15999985   5.45000029  58.43000031
H    19.22000122   4.01999998  53.73000336
H    21.64999962   4.01999998  53.20999908
H    23.88999939   4.88000011  53.81000137
H    22.63000107   6.00000000  57.74000168
H    14.52000046   6.00000000  57.25999832
H    25.38999939   5.68000031  55.20000076
H    24.89000130   6.74000025  56.43000031
S    13.73000050   3.74000025  53.06000137
C    11.00000000   3.55999994  53.81000137
C    12.28000069   4.00999975  54.03999710
C    12.64999962   4.59999990  55.28999710
C    11.68000031   4.80999994  56.25000000
C    10.36999893   4.33999968  56.04000092
C     9.27999973   4.55999994  56.93000031
C     7.99000025   4.21999979  56.59999847
C     7.63000011   3.61000013  55.37000275
C     8.64999962   3.40000010  54.47000122
C    10.00000000   3.70000005  54.79999924
C    14.09000015   4.84000015  55.41999817
C    14.82999992   4.28999996  54.34000015
C    16.21999931   4.21999979  54.26000214
C     6.19000006   3.25999999  55.04000092
H     5.74886560   3.82920504  54.22176743
H    10.80999947   3.22000003  52.80000305
H    12.02999973   5.21000004  57.19999695
H     9.39000034   4.96000004  57.94000244
H     7.20000029   4.42999983  57.31999969
H     8.40999985   3.05000019  53.47000122
H    16.70999908   3.79999995  53.39000320
H     5.55000019   3.28000021  55.93000031
H     6.19999981   2.20000005  54.77000427
S    13.86999989   1.75999999  50.15999603
C    11.18000031   1.18000007  50.75000000
C    12.51000023   1.10000002  51.09000397
C    12.97999954   0.56999999  52.32999802
C    11.97999954   0.11000000  53.16999817
C    10.59999943   0.12000000  52.84999847
C     9.64999962  -0.46000001  53.73000336
C     8.30999947  -0.37000000  53.47000122
C     7.92000008   0.27000001  52.25999832
C     8.76999950   0.74000001  51.29000092
C    10.15999985   0.69999999  51.60999680
C    14.42999935   0.55000001  52.43000031
C    15.06999969   1.19999993  51.33999634
C    16.39000130   1.62000000  51.37000275
C     6.44999981   0.56000000  52.08000183
H     5.93396425   0.07980004  51.24860764
H    10.85999966   1.75999999  49.88999939
H    12.20999908  -0.34000003  54.13999939
H    10.01000023  -0.79000002  54.69999695
H     7.50000000  -0.54000002  54.16999817
H     8.43999958   1.28000009  50.40000153
H    16.93000031   2.14000010  50.58000183
H     5.93999958   0.29999998  53.02000046
H     6.38999987   1.65999997  52.14000320
S    17.61000061  -0.24000001  54.72000122
C    20.30999947   0.51999998  54.34999847
C    18.98999977   0.56000000  53.95999908
C    18.56999969   1.26999998  52.78999710
C    19.50000000   1.93000007  52.02000046
C    20.86999893   1.76999998  52.32999802
C    21.83000183   2.19000006  51.37000275
C    23.16999817   2.11999989  51.68000031
C    23.62999916   1.43000007  52.83000183
C    22.70999908   1.03999996  53.76999664
C    21.30000114   1.13000000  53.54999924
C    17.14999962   1.21000004  52.47000122
C    16.52000046   0.46000001  53.50000000
C    15.19999981   0.05000000  53.48999786
C    25.06999969   0.97000003  52.97999954
H    25.56027031   1.51000857  53.79001617
H    20.71000099  -0.09000000  55.17000198
H    19.11999893   2.38999987  51.11000061
H    21.38999939   2.59000015  50.45999908
H    23.82999802   2.40999985  50.86000061
H    23.03999901   0.52999997  54.66999817
H    14.80000019  -0.46999997  54.36000061
H    25.52000046   1.13999999  51.98999786
H    24.99000168  -0.09999999  53.15999985
