96

S    17.17000008   5.42000008  58.18999863
C    19.82999992   5.46000004  57.38999939
C    18.53999901   5.05000019  57.12999725
C    18.18000031   4.50000000  55.86000061
C    19.19999886   4.36999989  54.93999863
C    20.53999901   4.74000025  55.19000244
C    21.61999893   4.53999996  54.29000092
C    22.92000008   4.82999992  54.59999847
C    23.23999786   5.51000023  55.80999756
C    22.22999954   5.72000027  56.72000122
C    20.86999893   5.40999985  56.42000198
C    16.72999954   4.38000011  55.76000214
C    16.06999969   4.84000015  56.91999817
C    14.68000031   4.96000004  56.93999863
C    24.65999985   5.91000032  56.12999725
H    25.13055801   5.22555256  56.83583450
H    20.09000015   5.86999989  58.36000061
H    18.94000053   3.86999989  54.01000214
H    21.35999870   4.15999985  53.29999924
H    23.71000099   4.53999996  53.90999603
H    22.53999901   6.14000034  57.67000198
H    14.19000053   5.38999987  57.81000137
H    25.20000076   6.00000000  55.19000244
H    24.59000015   6.91999960  56.55000305
S    13.53000069   3.58000016  53.39000320
C    10.80000019   3.58000016  54.09999847
C    12.10000038   3.96000004  54.36999893
C    12.50000000   4.51999998  55.63000107
C    11.50000000   4.77999973  56.55000305
C    10.14000034   4.61000013  56.19999695
C     9.06999969   4.90000010  57.09000015
C     7.76000023   4.57999992  56.84999847
C     7.40000010   3.81999993  55.70999908
C     8.38999939   3.61000013  54.77000427
C     9.76000023   3.91999984  54.99000168
C    13.94999981   4.57999992  55.80999756
C    14.63999939   4.02999973  54.69999695
C    16.03000069   4.01999998  54.59999847
C     6.02999973   3.25000000  55.40999985
H     5.51727819   3.77696419  54.60530853
H    10.57000065   2.98000002  53.22000122
H    11.72000027   5.17000008  57.54000092
H     9.42000008   5.21000004  58.06999969
H     7.17000008   4.59999990  57.76000214
H     8.07999992   3.01999998  53.90999603
H    16.54000092   3.78999996  53.67000198
H     5.42999983   3.28999996  56.32999802
H     6.24000025   2.21000004  55.13999939
S    17.21999931   5.56999969  52.02999878
C    19.92000008   5.91000032  51.31000137
C    18.63999939   5.52999973  50.97000122
C    18.26000023   5.09000015  49.65999985
C    19.23999977   4.90999985  48.69999695
C    20.56999969   5.29999971  48.97999573
C    21.61000061   5.25000000  48.01000214
C    22.88000107   5.68000031  48.30999756
C    23.21000099   6.05999994  49.64000320
C    22.23999977   6.14000034  50.61000061
C    20.88000107   5.86999989  50.27000046
C    16.81999969   4.97000027  49.52000046
C    16.09000015   5.25000000  50.70000076
C    14.70999908   5.40999985  50.80999756
C    24.64999962   6.43000031  49.91000366
H    25.09024429   5.84774017  50.71948242
H    20.30999947   6.34999990  52.22999954
H    18.89999962   4.53000021  47.74000168
H    21.30000114   4.88000011  47.04000092
H    23.61000061   5.72000027  47.50999832
H    22.50999832   6.47000027  51.59999847
H    14.25000000   5.38000011  51.79000092
H    25.35000038   6.46000004  49.06999969
H    24.63000107   7.48000050  50.26000214
S    13.55000019   4.41000032  47.15000153
C    10.81999969   4.40000010  47.93000031
C    12.15000057   4.56999969  48.22999954
C    12.53000069   5.05000019  49.52000046
C    11.56000042   5.23000002  50.48999786
C    10.19999981   4.90000010  50.27000046
C     9.21000004   4.90999985  51.29000092
C     7.88999987   4.67000008  50.98999786
C     7.50999975   4.23000002  49.68999863
C     8.47000027   4.15999985  48.70999908
C     9.84000015   4.46999979  48.95000076
C    13.96999931   5.18000031  49.64000320
C    14.67000008   4.88000011  48.44999695
C    16.03999901   4.63000011  48.40999985
C     6.09000015   3.79999995  49.38999939
H     5.61294460   4.43370056  48.64237595
H    10.65000057   4.18000031  46.86999893
H    11.87999916   5.45000029  51.51000214
H     9.55000019   5.19000006  52.29000092
H     7.13999987   5.00999975  51.70000076
H     8.30000019   3.74000025  47.71999741
H    16.57999992   4.26000023  47.54000092
H     5.46000004   3.84999990  50.28999710
H     6.02999973   2.76999998  49.02000046
