96

S    16.87999916   5.42999983  58.06999969
C    19.55000114   5.42000008  57.30999756
C    18.27999878   4.94000006  57.09000015
C    17.86000061   4.38000011  55.84000015
C    18.86999893   4.09000015  54.93000031
C    20.20000076   4.48999977  55.15999603
C    21.27000046   4.26000023  54.25000000
C    22.56000137   4.61000013  54.58000183
C    22.86999893   5.46000004  55.68000031
C    21.87999916   5.69000006  56.60999680
C    20.59000015   5.13999987  56.38999939
C    16.42000008   4.35999966  55.70000076
C    15.72999954   4.94000006  56.79999924
C    14.35999966   5.12000036  56.88999939
C    24.30000114   5.78999996  56.00999832
H    24.65614700   5.15605688  56.82201767
H    19.78000069   6.05000019  58.16999817
H    18.72999954   3.65000010  53.95000076
H    21.04999924   3.71000004  53.34000015
H    23.32999992   4.21999979  53.93000031
H    22.06000137   6.34000015  57.47000122
H    13.80000019   5.52999973  57.71999741
H    24.89000130   5.58000040  55.11000061
H    24.40999985   6.85999966  56.26999664
S    13.21000004   3.65000010  53.36000061
C    10.53999996   3.63000011  54.02000046
C    11.80999947   4.03999996  54.38000107
C    12.11999989   4.67000008  55.63000107
C    11.03000069   4.78999996  56.47999573
C     9.70000076   4.42000008  56.16000366
C     8.67000008   4.40000010  57.14000320
C     7.39000034   4.07000017  56.76000214
C     7.16000032   3.58000016  55.45000076
C     8.14000034   3.38999987  54.50000000
C     9.42000008   3.89999986  54.85000229
C    13.55999947   4.76999998  55.79000092
C    14.25000000   4.30999994  54.64000320
C    15.62000084   4.05999994  54.59000015
C     5.79999971   3.00999999  55.08999634
H     5.27980089   3.70834947  54.43440247
H    10.34999943   3.00000000  53.15999985
H    11.32999992   5.05999994  57.49000168
H     8.86999989   4.67999983  58.16999817
H     6.60000038   4.19000006  57.50000000
H     7.94000053   2.84999990  53.57999802
H    16.11999893   3.75999975  53.68000031
H     5.27999973   2.94000006  56.04999924
H     5.92999983   1.99000001  54.72000122
S    17.31999969   5.66999960  51.91999817
C    19.97999954   5.73999977  51.38000107
C    18.76000023   5.26999998  50.97000122
C    18.42000008   4.78999996  49.65999985
C    19.47000122   4.44999981  48.82999802
C    20.76000023   4.88999987  49.20999908
C    21.88999939   4.55000019  48.41999817
C    23.13999939   5.05999994  48.68000031
C    23.36999893   5.78999996  49.87999725
C    22.32999992   6.10000038  50.72000122
C    21.01000023   5.65000010  50.40999985
C    16.98999977   4.81999969  49.40000153
C    16.28000069   5.35000038  50.51000214
C    14.89999962   5.45000029  50.61999893
C    24.77999878   6.21000004  50.20999908
H    25.19314003   5.61165905  51.02203369
H    20.12000084   6.21000004  52.35000229
H    19.40000153   3.81999993  47.95000076
H    21.77999878   3.93000007  47.54000092
H    24.02000046   4.77999973  48.09999847
H    22.59000015   6.50000000  51.69000244
H    14.39000034   5.69999981  51.53999710
H    25.36999893   6.24000025  49.29000092
H    24.73999977   7.26000023  50.52999878
S    13.82999992   4.00999975  47.02999878
C    11.17000008   3.88000011  47.81000137
C    12.43999958   4.32000017  48.08000183
C    12.74000072   4.92999983  49.34999847
C    11.72999954   5.13000011  50.27000046
C    10.44000053   4.63999987  50.00000000
C     9.48999977   4.63999987  51.05999756
C     8.17000008   4.40000010  50.75000000
C     7.79999971   3.88999987  49.47999954
C     8.76000023   3.61999989  48.54000092
C    10.11000061   4.01999998  48.75000000
C    14.18000031   5.09999990  49.47000122
C    14.86999989   4.63999987  48.31999969
C    16.25000000   4.42999983  48.27999878
C     6.38999987   3.44000006  49.16999817
H     5.90026855   4.22073078  48.58799744
H    10.95000076   3.37000012  46.86999893
H    12.03999996   5.26999998  51.31000137
H     9.81000042   4.98000002  52.04000092
H     7.46999979   4.63999987  51.53999710
H     8.57999992   2.96000004  47.70000076
H    16.67000008   4.00000000  47.37999725
H     5.84999990   3.08999991  50.06000137
H     6.39999962   2.45000005  48.68000031
