96

S    17.29999924   5.23000002  57.95000076
C    19.96000099   5.07000017  57.43999863
C    18.70000076   4.80999994  56.93999863
C    18.40999985   4.38000011  55.59999847
C    19.52000046   4.15999985  54.80999756
C    20.82999992   4.48999977  55.21999741
C    21.94999886   4.17000008  54.40000153
C    23.23999786   4.48000002  54.78000259
C    23.45000076   5.09000015  56.04999924
C    22.40999985   5.23999977  56.93999863
C    21.07000160   4.94999981  56.56999969
C    16.97000122   4.42000008  55.44000244
C    16.25000000   4.88000011  56.56999969
C    14.85999966   4.90999985  56.63000107
C    24.89000130   5.35000038  56.42000198
H    25.33177757   4.53770399  56.99715805
H    20.09000015   5.60999966  58.36999893
H    19.37999916   3.53999996  53.93000031
H    21.73999977   3.63999987  53.47999954
H    24.07999992   4.21999979  54.15000153
H    22.67000008   5.53999996  57.95000076
H    14.35999966   4.94999981  57.58999634
H    25.52999878   5.55999994  55.56000137
H    24.73999977   6.28000021  56.97999954
S    13.71999931   3.44000006  53.15000153
C    11.00999928   3.49000001  53.92000198
C    12.31999969   3.82999992  54.16999817
C    12.71000004   4.46999979  55.38999939
C    11.77999973   4.63999987  56.40999603
C    10.40999985   4.51999998  56.09000397
C     9.39000034   4.69999981  57.06999969
C     8.05000019   4.48999977  56.81999969
C     7.69000006   3.89999986  55.58000183
C     8.64999962   3.60000014  54.64000320
C    10.01999950   3.91000009  54.85000229
C    14.15999985   4.55999994  55.47000122
C    14.86999989   4.11000013  54.33000183
C    16.23999977   3.93000007  54.34000015
C     6.28999996   3.35000014  55.45999908
H     5.79152966   3.69892931  54.55563354
H    10.77000046   3.01999998  52.97000122
H    12.01000023   4.94999981  57.42000198
H     9.71000004   5.00999975  58.06000137
H     7.40999985   4.42000008  57.69000244
H     8.36999989   3.00999999  53.76999664
H    16.72999954   3.45999980  53.48999786
H     5.72000027   3.68000007  56.33999634
H     6.44000006   2.26999998  55.47999954
S    17.27000046   5.65000010  52.01000214
C    20.05000114   5.50000000  51.39999771
C    18.72999954   5.35000038  51.04999924
C    18.38999939   4.92000008  49.72999954
C    19.43000031   4.56999969  48.88000107
C    20.79000092   4.85000038  49.13999939
C    21.87000084   4.67999983  48.22999954
C    23.18000031   4.86999989  48.61999893
C    23.43000031   5.33999968  49.93999863
C    22.43999863   5.59999990  50.86000061
C    21.09999847   5.31000042  50.47000122
C    16.95999908   4.94000006  49.43999863
C    16.23999977   5.31000042  50.59999847
C    14.85000038   5.35000038  50.63999939
C    24.77999878   5.89999962  50.31000137
H    25.29898262   5.28148842  51.04225922
H    20.34000015   5.84000015  52.38999939
H    19.13999939   4.30999994  47.87000275
H    21.60000038   4.33999968  47.22999954
H    23.94000053   4.71000004  47.85999680
H    22.69000053   5.77000046  51.90000153
H    14.32000065   5.53999996  51.56999969
H    25.35000038   5.84999990  49.36999893
H    24.56000137   6.90999985  50.65999985
S    13.86999989   4.05000019  47.00000000
C    11.19999981   3.68999982  47.70000076
C    12.46000099   4.09000015  48.08000183
C    12.74000072   4.63999987  49.36999893
C    11.72999954   4.76999998  50.31000137
C    10.40999985   4.48000002  49.92000198
C     9.38000011   4.46000004  50.90000153
C     8.07999992   4.26999998  50.47000122
C     7.76999998   3.72000003  49.20000076
C     8.82000065   3.51000023  48.33000183
C    10.14999962   3.89999986  48.61999893
C    14.17000008   4.92000008  49.50000000
C    14.91000080   4.53000021  48.36000061
C    16.29999924   4.59000015  48.26000214
C     6.35999966   3.28999996  48.86000061
H     5.96284008   3.86446333  48.02312851
H    11.03999996   3.22000003  46.72999954
H    11.95000076   5.03000021  51.33999634
H     9.50000000   4.61000013  51.97000122
H     7.30999994   4.34999990  51.23000336
H     8.67999935   2.93000007  47.41000366
H    16.75000000   4.11999989  47.38999939
H     5.68000031   3.37000012  49.71000290
H     6.30999994   2.25999999  48.50000000
