96

S    17.23999977   5.07999992  57.87000275
C    19.88000107   5.32999992  57.09999847
C    18.59000015   5.03000021  56.72999954
C    18.17000008   4.55000019  55.45000076
C    19.11999893   4.40000010  54.45999908
C    20.45000076   4.78999996  54.75999832
C    21.50000000   4.69000006  53.81999969
C    22.78000069   5.13000011  54.08000183
C    23.12999916   5.63000011  55.35999680
C    22.15999985   5.71000004  56.33999634
C    20.82999992   5.32000017  56.04999924
C    16.73999977   4.28000021  55.40999985
C    16.06999969   4.72000027  56.58000183
C    14.70000076   4.96000004  56.59999847
C    24.56999969   5.95000029  55.68000031
H    25.03078461   5.23401213  56.36054230
H    20.15000153   5.51000023  58.13999939
H    18.92000008   3.94000006  53.48999786
H    21.21999931   4.42999983  52.80000305
H    23.52999878   5.15999985  53.29000092
H    22.42000198   5.88999987  57.37999725
H    14.25000000   5.26999998  57.52999878
H    25.03999901   6.17000008  54.72000122
H    24.51000023   6.90000010  56.23000336
S    13.53000069   3.97000027  52.95000076
C    10.80999947   4.05999994  53.72000122
C    12.13000107   4.32999992  53.97999573
C    12.51000023   4.65999985  55.31999969
C    11.51000023   4.90999985  56.23000336
C    10.13000011   4.67000008  56.00000000
C     9.19000053   4.69000006  57.06999969
C     7.94000053   4.17000008  56.83000183
C     7.53999996   3.84000015  55.51000214
C     8.42000008   3.86000013  54.45999908
C     9.77999973   4.21999979  54.68000031
C    13.96999931   4.72000027  55.43000031
C    14.65999985   4.25000000  54.29000092
C    16.02000046   3.98999977  54.23999786
C     6.26999950   3.05000019  55.25000000
H     5.72083855   3.57063341  54.46548462
H    10.53999996   3.60000014  52.77000046
H    11.97999954   4.99000025  57.21000290
H     9.61999989   5.03999996  58.01000214
H     7.26000023   3.97000027  57.65999603
H     8.19000053   3.49000001  53.46000290
H    16.47999954   3.98999977  53.26000214
H     5.77000046   2.98000002  56.22000122
H     6.51000023   2.00999999  54.97000122
S    17.40999985   6.09000015  51.81000137
C    20.06000137   6.12999964  51.05999756
C    18.76000023   5.84999990  50.68999863
C    18.36000061   5.23000002  49.45999908
C    19.40000153   5.05999994  48.55999756
C    20.72000122   5.55000019  48.75999832
C    21.80999947   5.31000042  47.88000107
C    23.11000061   5.73000002  48.06000137
C    23.36999893   6.42000008  49.27000046
C    22.39999962   6.51999998  50.24000168
C    21.05999947   6.06999969  50.06000137
C    16.90999985   5.17000008  49.36999893
C    16.25000000   5.64000034  50.54000092
C    14.86999989   5.75000000  50.61000061
C    24.79000092   6.86999989  49.52000046
H    25.28093147   6.22965717  50.25283813
H    20.32999992   6.67000008  51.95999908
H    19.29999924   4.55999994  47.60000229
H    21.63000107   4.80999994  46.93000031
H    23.92000008   5.59000015  47.35000229
H    22.69000053   6.81999969  51.24000168
H    14.34000015   6.15000010  51.47999573
H    25.15999985   6.86999989  48.48999786
H    24.71999931   7.90000010  49.86999893
S    13.75000000   4.48999977  46.97999954
C    11.07999992   4.36999989  47.76000214
C    12.35999966   4.79999971  48.04000092
C    12.65999985   5.36000013  49.31999969
C    11.63000011   5.42999983  50.24000168
C    10.29999924   5.07000017  49.92000198
C     9.27999973   5.17000008  50.90999985
C     7.97999954   4.79999971  50.63000107
C     7.65999985   4.21999979  49.38000107
C     8.65999985   3.95000005  48.47000122
C     9.98999977   4.44000006  48.66000366
C    14.09999943   5.40999985  49.48999786
C    14.80000019   4.90999985  48.36000061
C    16.17000008   4.76000023  48.26000214
C     6.23000050   3.84999990  49.05000305
H     5.92980814   4.47182608  48.20660782
H    10.90999985   3.77999997  46.86999893
H    11.80999947   5.78999996  51.25000000
H     9.51000023   5.59000015  51.88000107
H     7.21000004   5.18000031  51.30000305
H     8.34000015   3.56999993  47.50999832
H    16.72000122   4.36999989  47.39999771
H     5.66999960   4.02999973  49.98000336
H     6.28000021   2.79999995  48.75000000
