96

S    17.19000053   5.28999996  57.91999817
C    19.92000008   5.35000038  57.25000000
C    18.63000107   5.03999996  56.90999985
C    18.27999878   4.42999983  55.65999985
C    19.29000092   4.15000010  54.75999832
C    20.62000084   4.59999990  54.97000122
C    21.70999908   4.44000006  54.06999969
C    23.00000000   4.76000023  54.41999817
C    23.29000092   5.32000017  55.68999863
C    22.27999878   5.40000010  56.62000275
C    20.93000031   5.12000036  56.27999878
C    16.84000015   4.28999996  55.47000122
C    16.13000107   4.79999971  56.59000015
C    14.75999928   5.05000019  56.59999847
C    24.71999931   5.61999989  56.07999802
H    25.14730453   4.93631268  56.81353760
H    20.13999939   5.77000046  58.22999954
H    19.05999947   3.58999991  53.86000061
H    21.63999939   3.88000011  53.13999939
H    23.77000046   4.76999998  53.64999771
H    22.47999954   5.58000040  57.67000198
H    14.34000015   5.58000040  57.44999695
H    25.38999939   5.59999990  55.21999741
H    24.76000023   6.60000038  56.56999969
S    13.68000031   3.73000002  53.00000000
C    10.95999908   3.70000005  53.69999695
C    12.25999928   4.05000019  54.00000000
C    12.63000011   4.61999989  55.26000214
C    11.61999893   4.76999998  56.19999695
C    10.26000023   4.48999977  55.90999985
C     9.31999969   4.55999994  56.97999954
C     8.01999950   4.18000031  56.72999954
C     7.62000036   3.71000004  55.44000244
C     8.57999992   3.47000003  54.47999954
C     9.92000008   3.93000007  54.62999725
C    14.06999969   4.63999987  55.45999908
C    14.75999928   4.07000017  54.36999893
C    16.13999939   3.86999989  54.33000183
C     6.21000004   3.23000002  55.19000244
H     5.75553608   3.79097867  54.37338257
H    10.65000057   3.22000003  52.77000046
H    11.85999966   4.99000025  57.22999954
H     9.68000031   5.03999996  57.88000107
H     7.26999998   4.38000011  57.48000336
H     8.27000046   2.94000006  53.59000397
H    16.63999939   3.35000014  53.52000427
H     5.60999966   3.50000000  56.06999969
H     6.11999989   2.17999983  54.91000366
S    13.89000034   1.82999992  50.28999710
C    11.26999950   1.25000000  50.89000320
C    12.58999920   1.08999991  51.25000000
C    13.03999996   0.56999999  52.50000000
C    12.05999947   0.09999999  53.34999847
C    10.69000053   0.16000001  53.02000046
C     9.64999962  -0.24000001  53.90999603
C     8.31999969  -0.12000000  53.59000397
C     7.92999983   0.38000000  52.31999969
C     8.89000034   0.90000004  51.46999741
C    10.26999950   0.75999999  51.77999878
C    14.48999977   0.59999996  52.57999802
C    15.07999992   1.29999995  51.50000000
C    16.46000099   1.50000000  51.46999741
C     6.47000027   0.46999997  51.93999863
H     6.25053787   0.26469693  50.89224625
H    11.09000015   1.67999995  49.91000366
H    12.36999989  -0.34999999  54.29999924
H     9.92000008  -0.59000003  54.89999771
H     7.59999990  -0.59000003  54.25000000
H     8.57999992   1.44999993  50.59000015
H    17.02000046   2.02999997  50.70999908
H     5.93999958  -0.16000001  52.65999603
H     6.12999964   1.48000002  52.18999863
S    17.81999969  -0.22000000  54.86000061
C    20.50000000   0.32999998  54.22999954
C    19.17000008   0.39000002  53.88999939
C    18.67000008   1.07000005  52.74000168
C    19.63999939   1.52999997  51.86999893
C    21.04000092   1.43999994  52.11000061
C    22.06000137   1.84000003  51.19999695
C    23.38999939   1.59999990  51.45999908
C    23.80000114   0.90000004  52.62000275
C    22.86000061   0.59000003  53.57999802
C    21.47999954   0.83999997  53.34000015
C    17.21999931   1.05999994  52.56000137
C    16.64999962   0.37000000  53.66000366
C    15.29000092   0.09999999  53.61999893
C    25.26000023   0.51999998  52.81000137
H    25.63020515   0.97563702  53.72839355
H    20.76999855  -0.25999999  55.10000229
H    19.31999969   1.94999993  50.91999817
H    21.73000145   2.20000005  50.22999573
H    24.15999985   2.03999996  50.83000183
H    23.15999985   0.19999999  54.54000092
H    14.78000069  -0.48000002  54.38000107
H    25.86999893   0.82999998  51.95999908
H    25.25000000  -0.56999999  52.90999985
