96

S    17.09000015   5.32000017  57.81999969
C    19.86999893   5.05999994  57.25000000
C    18.54999924   4.90999985  56.88999939
C    18.20999908   4.46000004  55.58000183
C    19.19999886   4.38000011  54.61000061
C    20.53999901   4.67999983  54.94999695
C    21.59000015   4.69000006  53.99000168
C    22.89999962   4.97000027  54.31999969
C    23.21000099   5.42999983  55.63000107
C    22.21999931   5.51999998  56.58000183
C    20.90999985   5.03999996  56.29000092
C    16.77999878   4.32000017  55.35999680
C    16.05999947   4.86999989  56.45000076
C    14.70000076   5.14999962  56.43000031
C    24.64999962   5.69999981  56.00999832
H    25.01375389   5.16506863  56.88728333
H    20.03000069   5.55000019  58.20999908
H    18.93000031   4.05000019  53.61000061
H    21.35999870   4.41000032  52.97000122
H    23.64000130   4.78999996  53.54999924
H    22.34000015   5.88000011  57.60000229
H    14.22999954   5.49000025  57.34000397
H    25.28000069   5.56999969  55.13000107
H    24.70999908   6.77999973  56.20999908
S    13.64999962   3.98000002  52.78999710
C    10.98000050   3.65999985  53.46000290
C    12.25000000   4.00000000  53.88000107
C    12.56999969   4.50000000  55.18000031
C    11.51999950   4.59000015  56.07999802
C    10.24000072   4.11000013  55.72000122
C     9.19000053   4.15000010  56.69000244
C     7.96000004   3.58999991  56.44000244
C     7.65999985   3.07000017  55.15999603
C     8.57999992   3.25000000  54.15000153
C     9.92999935   3.61000013  54.40999985
C    14.01000023   4.69000006  55.30000305
C    14.73000050   4.28000021  54.15999985
C    16.11999893   4.15999985  54.13000107
C     6.26999950   2.59999990  54.79000092
H     5.82814932   3.24139595  54.02745438
H    10.85999966   3.32999992  52.43000031
H    11.73999977   4.94999981  57.08000183
H     9.44999981   4.67000008  57.61000061
H     7.20000029   3.73000002  57.21000290
H     8.19999981   2.94000006  53.18000031
H    16.65999985   4.09000015  53.18999863
H     5.64000034   2.56000018  55.70000076
H     6.44000006   1.58000004  54.45000076
S    17.51000023   5.82000017  51.79000092
C    20.29000092   5.80999947  51.24000168
C    19.00000000   5.49000025  50.87999725
C    18.65999985   5.07000017  49.55999756
C    19.71999931   4.97000027  48.67000198
C    21.02999878   5.36000013  49.02000046
C    22.10000038   5.33999968  48.09000015
C    23.38000107   5.77000046  48.37999725
C    23.68999863   6.19000006  49.69999695
C    22.72000122   6.15000010  50.68000031
C    21.40000153   5.73000002  50.35999680
C    17.21999931   5.00999975  49.33000183
C    16.43000031   5.42000008  50.43000031
C    15.06000042   5.61999989  50.40999985
C    25.07999802   6.69000053  50.00999832
H    25.53689575   6.00465775  50.72389603
H    20.43999863   6.38999987  52.15000153
H    19.64999962   4.32000017  47.80000305
H    21.78999901   5.00999975  47.09999847
H    24.11999893   5.73999977  47.58999634
H    22.82999992   6.67000008  51.62000275
H    14.39000034   5.77000046  51.25000000
H    25.66999817   6.71999979  49.08000183
H    25.02000046   7.76000023  50.25000000
S    14.14000034   4.33999968  46.70000076
C    11.42000008   4.21999979  47.36999893
C    12.69999981   4.63000011  47.69000244
C    13.04999924   5.17000008  48.96999741
C    12.02000046   5.26000023  49.88999939
C    10.67999935   4.90999985  49.59000015
C     9.67000008   4.90000010  50.59999847
C     8.38999939   4.46999979  50.34000015
C     8.06999969   3.97000027  49.05000305
C     9.01000023   4.01999998  48.04000092
C    10.36000061   4.40000010  48.29000092
C    14.47999954   5.25000000  49.18000031
C    15.19000053   4.72000027  48.08000183
C    16.56999969   4.57999992  48.15999985
C     6.67000008   3.47000003  48.79000092
H     6.14295673   4.00416517  47.99943542
H    11.32999992   3.68999982  46.42000198
H    12.15999985   5.56999969  50.93000031
H     9.98000050   5.03000021  51.63000107
H     7.55000019   4.65999985  51.00000000
H     8.73000050   3.60000014  47.08000183
H    17.13000107   4.32000017  47.25999832
H     6.11999989   3.61999989  49.72000122
H     6.67999983   2.39999986  48.53000259
