96

S    17.19000053   5.46999979  57.81999969
C    19.81999969   5.93999958  57.09000015
C    18.60999870   5.38000011  56.76000214
C    18.30999947   4.94000006  55.43000031
C    19.34000015   4.86999989  54.51000214
C    20.62999916   5.32000017  54.88999939
C    21.70000076   5.19000006  53.95000076
C    23.02000046   5.47999954  54.19000244
C    23.29000092   5.86999989  55.52999878
C    22.29000092   6.12999964  56.45000076
C    20.92000008   5.88000011  56.18000031
C    16.86000061   4.85000038  55.30000305
C    16.10000038   5.21000004  56.44000244
C    14.73000050   5.42999983  56.49000168
C    24.70000076   6.25999975  55.89000320
H    25.17625427   5.54917288  56.56528854
H    19.96999931   6.17000008  58.13999939
H    19.19999886   4.32999992  53.59000397
H    21.59000015   4.76999998  52.95999908
H    23.80000114   5.40000010  53.44999695
H    22.50999832   6.58999968  57.41000366
H    14.19999981   5.64000034  57.42000198
H    25.38000107   6.32999992  55.02999878
H    24.67000008   7.18999958  56.45999908
S    13.73999977   4.15000010  52.83000183
C    11.05999947   3.96000004  53.53000259
C    12.32999992   4.32000017  53.89999771
C    12.63000011   4.92000008  55.17000198
C    11.67000008   5.01999950  56.17000198
C    10.36999893   4.55000019  55.86999893
C     9.26999950   4.69000006  56.76000214
C     7.97999954   4.28000021  56.50000000
C     7.76999998   3.63000011  55.26000214
C     8.76999950   3.55999994  54.31000137
C    10.06999969   4.07999992  54.54000092
C    14.06000042   5.10999966  55.30000305
C    14.78000069   4.73000002  54.13999939
C    16.14999962   4.48999977  54.15000153
C     6.38999987   3.15000010  54.85000229
H     5.88405371   3.97661710  54.35118103
H    10.97000027   3.58999991  52.50999832
H    11.80999947   5.40999985  57.16999817
H     9.51000023   5.36999989  57.56999969
H     7.26000023   4.48000002  57.29000092
H     8.52999973   3.12999988  53.34999847
H    16.65999985   3.96000004  53.34999847
H     5.80999947   2.84000015  55.72000122
H     6.53999996   2.25999999  54.22999954
S    13.71999931   1.99000001  50.20000076
C    11.07999992   1.35000002  50.93999863
C    12.43000031   1.34000003  51.23000336
C    12.96000004   0.69999999  52.39999771
C    12.10000038   0.19000000  53.34999847
C    10.72000027   0.09000000  53.04999924
C     9.81999969  -0.55000001  53.95999908
C     8.47000027  -0.39000002  53.79000092
C     7.95000029   0.28999999  52.64999771
C     8.80000019   0.79999995  51.70000076
C    10.21000004   0.71999997  51.86000061
C    14.40000057   0.87000000  52.54000092
C    14.94999981   1.46000004  51.37000275
C    16.28999901   1.81999993  51.33999634
C     6.51999998   0.05000000  52.22999954
H     6.22111607   0.27060503  51.20525360
H    10.67999935   1.92000008  50.11000061
H    12.50000000  -0.04000000  54.33000183
H    10.19000053  -0.99000001  54.87999725
H     7.76999998  -0.79000002  54.52000046
H     8.43000031   1.19000006  50.75000000
H    16.69999886   2.27999997  50.45000076
H     6.25999975  -1.00999999  52.28000259
H     5.91000032   0.59000003  52.95999908
S    17.77000046   0.39999998  54.75999832
C    20.34000015   1.08000004  54.15000153
C    19.01000023   1.28000009  53.86000061
C    18.51000023   1.89999998  52.67000198
C    19.44000053   2.39999986  51.77000046
C    20.81999969   2.30999994  52.06999969
C    21.78999901   2.69000006  51.10000229
C    23.12000084   2.49000001  51.38999939
C    23.59999847   1.85000002  52.56999969
C    22.67000008   1.39999998  53.47000122
C    21.28999901   1.62000000  53.23999786
C    17.10000038   1.57000005  52.44999695
C    16.54999924   0.90000004  53.56999969
C    15.21999931   0.50999999  53.61999893
C    25.03000069   1.36999989  52.69000244
H    25.53614235   1.70505226  53.59535217
H    20.58000183   0.45000002  55.00000000
H    19.15999985   2.71000004  50.77000046
H    21.40999985   2.99000001  50.13000107
H    23.81000137   2.86999989  50.65000153
H    22.84000015   0.90000004  54.43000031
H    14.78999996  -0.05000000  54.43999863
H    25.62000084   1.71000004  51.83000183
H    25.09000015   0.28000000  52.71999741
