96

S    16.64999962   5.42999983  57.93000031
C    19.42000008   5.28999996  57.29999924
C    18.09999847   5.07000017  56.95999908
C    17.69000053   4.56999969  55.68999863
C    18.71000099   4.33999968  54.78000259
C    20.07999802   4.50000000  55.08999634
C    21.09999847   4.21000004  54.13999939
C    22.37999916   4.67000008  54.31000137
C    22.73999977   5.32000017  55.52000046
C    21.78999901   5.55000019  56.49000168
C    20.45000076   5.09999990  56.35000229
C    16.25000000   4.57999992  55.48999786
C    15.52000046   4.98000002  56.63999939
C    14.13000011   5.03000021  56.70999908
C    24.18999863   5.73999977  55.59000015
H    24.69391441   5.20059776  56.39200592
H    19.70999908   5.77000046  58.22999954
H    18.43000031   3.88999987  53.82999802
H    20.88999939   3.75999975  53.16999817
H    23.03999901   4.59000015  53.44999695
H    22.15999985   6.02999973  57.38999939
H    13.56999969   5.32999992  57.58999634
H    24.77000046   5.65000010  54.65999985
H    24.20999908   6.80999994  55.83000183
S    13.02000046   3.98000002  53.04999924
C    10.34000015   3.71000004  53.81000137
C    11.63000011   4.03999996  54.15000153
C    12.02000046   4.21999979  55.52000046
C    11.09000015   4.33999968  56.52999878
C     9.73999977   4.05000019  56.20999908
C     8.71000004   4.32999992  57.15000153
C     7.42000008   4.09999990  56.75000000
C     7.03999996   3.51000023  55.52000046
C     8.01999950   3.42000008  54.54999924
C     9.36999989   3.75999975  54.85000229
C    13.43999958   4.55000019  55.59000015
C    14.14000034   4.21000004  54.40999985
C    15.52999973   4.15999985  54.36999893
C     5.63000011   3.19000006  55.10000229
H     5.33682966   3.83354521  54.27054596
H    10.11999989   3.42999983  52.78999710
H    11.38000011   4.65999985  57.52999878
H     8.90999985   4.92999983  58.02999878
H     6.65000010   4.56999969  57.36999893
H     7.85000038   3.19000006  53.50000000
H    16.05999947   4.00999975  53.43000031
H     4.90999985   3.31999993  55.93000031
H     5.50000000   2.11999989  54.86999893
S    14.13000011   1.90999997  50.13999939
C    11.46000004   1.41000009  50.66999817
C    12.76999950   1.24000001  51.05999756
C    13.12000084   0.75999999  52.36000061
C    12.10999966   0.25999999  53.15999985
C    10.77000046   0.25000000  52.71999741
C     9.71000004  -0.17000002  53.56999969
C     8.43999958   0.09999999  53.11999893
C     8.06999969   0.79000002  51.93999863
C     9.09000015   1.28000009  51.16000366
C    10.42000008   0.90000004  51.47999573
C    14.55000019   0.90999997  52.60000229
C    15.19000053   1.57000005  51.52000046
C    16.55999947   1.82999992  51.52000046
C     6.61999989   1.19999993  51.76000214
H     6.10181332   0.45466280  51.15663147
H    11.31999969   1.94999993  49.73999786
H    12.22000027  -0.01000000  54.20000076
H     9.82999992  -0.44000000  54.61999893
H     7.59000015  -0.09999999  53.76999664
H     8.88000011   1.87999988  50.27999878
H    17.11000061   2.24000001  50.68000031
H     6.15999985   1.18000007  52.75000000
H     6.61999989   2.24000001  51.42000198
S    17.81999969   0.28000000  54.97000122
C    20.53999901   0.46999997  54.22000122
C    19.22000122   0.82000005  54.02000046
C    18.76000023   1.29999995  52.75000000
C    19.68000031   1.65000010  51.79000092
C    21.07000160   1.57000005  52.08000183
C    22.09000015   1.94999993  51.16000366
C    23.40999985   1.88999999  51.53999710
C    23.82999802   1.10000002  52.63999939
C    22.88000107   0.62000000  53.50000000
C    21.50000000   0.87000000  53.26000214
C    17.30999947   1.35000002  52.60000229
C    16.65999985   0.71999997  53.68999863
C    15.31000042   0.38000000  53.64999771
C    25.27000046   0.82999998  53.02000046
H    25.65411758   1.44885302  53.83090973
H    20.78000069  -0.25999999  54.99000168
H    19.37999916   2.01999998  50.80999756
H    21.84999847   2.38000011  50.19000244
H    24.18999863   2.29999995  50.91999817
H    23.26000023   0.12000000  54.38999939
H    14.85999966  -0.14999999  54.47999954
H    25.82999992   0.93999994  52.09000015
H    25.34000015  -0.25000000  53.23999786
