96

S    17.21999931   5.49000025  57.90000153
C    19.90999985   5.84000015  57.12999725
C    18.63000107   5.44000053  56.81999969
C    18.29000092   5.01999950  55.48999786
C    19.32999992   4.80999994  54.61000061
C    20.66999817   5.18000031  54.88999939
C    21.73999977   4.96000004  53.99000168
C    23.02999878   5.33999968  54.27999878
C    23.31000137   5.98000002  55.52000046
C    22.29000092   6.21000004  56.40999603
C    20.95999908   5.75000000  56.18000031
C    16.86000061   4.79999971  55.37000275
C    16.13999939   5.10999966  56.55000305
C    14.75999928   5.23999977  56.63000107
C    24.69000053   6.38000011  55.98999786
H    25.22538757   5.68756294  56.63960648
H    20.03999901   6.30000019  58.09999847
H    19.11000061   4.44999981  53.60000229
H    21.40999985   4.63000011  53.01000214
H    23.84000015   5.52999973  53.57999802
H    22.56999969   6.58999968  57.38999939
H    14.27000046   5.68000031  57.50000000
H    25.31999969   6.60000038  55.11000061
H    24.57999992   7.36000013  56.46999741
S    13.64999962   3.89999986  53.06999969
C    10.95999908   3.65999985  53.82999802
C    12.27000046   3.91000009  54.16999817
C    12.57999992   4.53000021  55.43000031
C    11.57999992   4.78999996  56.35000229
C    10.26000023   4.34999990  56.04999924
C     9.25000000   4.35999966  57.04999924
C     7.92999983   4.25000000  56.68000031
C     7.53999996   3.84999990  55.37000275
C     8.52999973   3.63000011  54.45000076
C     9.89000034   3.94000006  54.72999954
C    14.00000000   4.79999971  55.54000092
C    14.70999908   4.53000021  54.34000015
C    16.10000038   4.48000002  54.22999954
C     6.11000013   3.44000006  55.08999634
H     5.67483759   4.01070452  54.26961136
H    10.67000008   3.21000004  52.88999939
H    11.94000053   4.99000025  57.35000229
H     9.43000031   4.76000023  58.04999924
H     7.11999989   4.46000004  57.37999725
H     8.31999969   3.07999992  53.53000259
H    16.63999939   4.13999987  53.34999847
H     5.58000040   3.63000011  56.03000259
H     6.05000019   2.37000012  54.86999893
S    13.82999992   1.80000007  50.37000275
C    11.18000031   1.26999998  51.07999802
C    12.51999950   1.12000000  51.35000229
C    13.02000046   0.46999997  52.52999878
C    12.10000038  -0.07000000  53.40000153
C    10.70000076   0.03000000  53.20000076
C     9.80000019  -0.41999999  54.20999908
C     8.46000004  -0.32999998  53.92000198
C     8.00000000   0.37000000  52.77000046
C     8.86999989   0.99000001  51.90999985
C    10.26999950   0.73000002  52.02000046
C    14.47000027   0.59000003  52.63000107
C    15.05000019   1.31999993  51.56000137
C    16.39000130   1.70000005  51.52999878
C     6.50000000   0.38000000  52.56000137
H     6.16666985   0.19560462  51.53873444
H    10.77999973   1.87999988  50.27000046
H    12.50000000  -0.56000000  54.29000092
H    10.11999989  -0.94999999  55.10000229
H     7.77999973  -0.79999995  54.61999893
H     8.47999954   1.58999991  51.09000397
H    16.90999985   2.15000010  50.68999863
H     5.86000013  -0.16000001  53.26000214
H     6.25999975   1.39999998  52.88999939
S    17.84000015   0.11000000  54.86000061
C    20.39999962   1.00000000  54.26000214
C    19.05999947   1.00999999  53.95000076
C    18.60000038   1.53999996  52.70000076
C    19.52000046   2.09999990  51.81999969
C    20.89999962   2.13000011  52.12999725
C    21.86000061   2.56000018  51.18000031
C    23.21000099   2.45000005  51.45999908
C    23.67000198   1.87999988  52.68000031
C    22.75000000   1.46000004  53.61000061
C    21.35000038   1.52999997  53.36000061
C    17.15999985   1.34000003  52.63999939
C    16.60000038   0.54000002  53.66000366
C    15.27999973   0.09999999  53.66000366
C    25.10999870   1.47000003  52.88999939
H    25.55237961   1.88383937  53.79616547
H    20.65000153   0.46999997  55.18000031
H    19.18000031   2.38000011  50.83000183
H    21.42999840   2.89000010  50.24000168
H    24.01000023   2.63000011  50.75000000
H    23.13999939   0.82000005  54.38999939
H    14.88000011  -0.39000002  54.54000092
H    25.73999786   1.79000008  52.04999924
H    25.17999840   0.38000000  52.94000244
