96

S    17.13999939   5.00999975  57.88999939
C    19.75000000   5.40999985  57.14000320
C    18.51000023   4.94000006  56.76000214
C    18.18000031   4.48000002  55.45000076
C    19.20999908   4.40000010  54.52999878
C    20.48000145   4.92999983  54.86000061
C    21.54999924   4.88999987  53.92000198
C    22.84000015   5.21000004  54.26000214
C    23.11000061   5.75000000  55.54999924
C    22.09000015   5.89999962  56.45999908
C    20.78000069   5.44000053  56.17000198
C    16.73999977   4.33999968  55.34999847
C    16.03999901   4.67000008  56.53999710
C    14.65999985   4.86000013  56.49000168
C    24.51999855   6.15000010  55.93000031
H    25.03960991   5.29584551  56.36419296
H    19.89999962   5.64000034  58.20000076
H    18.97999954   4.03999996  53.53000259
H    21.25999832   4.35999966  53.01000214
H    23.65999985   4.86000013  53.63999939
H    22.30999947   6.19000006  57.48000336
H    14.06999969   5.15999985  57.35000229
H    25.10000038   6.54999971  55.08999634
H    24.51999855   7.00999975  56.60999680
S    13.53999996   3.65999985  52.88000107
C    10.86999989   3.53999996  53.67000198
C    12.15999985   3.93000007  53.95999908
C    12.48999977   4.53999996  55.20999908
C    11.46000004   4.81999969  56.09000397
C    10.10000038   4.51999998  55.79999924
C     9.07999992   4.59000015  56.79000092
C     7.79999971   4.21000004  56.49000168
C     7.50999975   3.40999985  55.34999847
C     8.51000023   3.30000019  54.40999985
C     9.81000042   3.84999990  54.55999756
C    13.94000053   4.61000013  55.31999969
C    14.63999939   4.07999992  54.20999908
C    16.02000046   3.94000006  54.22000122
C     6.12999964   2.82999992  55.13000107
H     5.58526516   3.37473512  54.35887909
H    10.80999947   2.89999986  52.78999710
H    11.73999977   5.09999990  57.09999847
H     9.36999989   4.88000011  57.80000305
H     7.09000015   4.32000017  57.30999756
H     8.38999939   2.68000007  53.52000427
H    16.62999916   3.78999996  53.33000183
H     5.55999994   2.86000013  56.06999969
H     6.30000019   1.79000008  54.84000397
S    17.54999924   5.79999971  51.83000183
C    20.23999977   5.88000011  51.11000061
C    18.95000076   5.51000023  50.79000092
C    18.57999992   4.92999983  49.52999878
C    19.59000015   4.79999971  48.59000397
C    20.88000107   5.26999998  48.88999939
C    21.97999954   5.15999985  47.98999786
C    23.28000069   5.51999998  48.27999878
C    23.62999916   6.06999969  49.54000092
C    22.60000038   6.25999975  50.43000031
C    21.28999901   5.78000021  50.17000198
C    17.13999939   4.78999996  49.38000107
C    16.46999931   5.23000002  50.54999924
C    15.08999920   5.33999968  50.65999985
C    25.10999870   6.21000004  49.81999969
H    25.52184105   5.57093573  50.60107803
H    20.34000015   6.37000036  52.08000183
H    19.44000053   4.28999996  47.63999939
H    21.83000183   4.72000027  47.00000000
H    24.03000069   5.25000000  47.54000092
H    22.76000023   6.61000013  51.45000076
H    14.61999989   5.69000006  51.56999969
H    25.75000000   6.05000019  48.94000244
H    25.34000015   7.23999977  50.08999634
S    13.89000034   4.25000000  47.01000214
C    11.26000023   3.86999989  47.87000275
C    12.51999950   4.33999968  48.13999939
C    12.86000061   4.88999987  49.43000031
C    11.82000065   5.13000011  50.31000137
C    10.47999954   4.77999973  50.02999878
C     9.38000011   4.96000004  50.90999985
C     8.17000008   4.34999990  50.70000076
C     7.86000013   3.78999996  49.43000031
C     8.85000038   3.77999997  48.47000122
C    10.19000053   4.15999985  48.75999832
C    14.29999924   5.03999996  49.54000092
C    14.96999931   4.61999989  48.36999893
C    16.35000038   4.44999981  48.27999878
C     6.57000017   3.03999996  49.20999908
H     5.87063313   3.68227577  48.67477036
H    11.03000069   3.45000005  46.90000153
H    12.07999992   5.59000015  51.25999832
H     9.42000008   5.42999983  51.88999939
H     7.44000006   4.26000023  51.50000000
H     8.73999977   3.35000014  47.48000336
H    16.80999947   4.21999979  47.31999969
H     6.09000015   2.66999984  50.13000107
H     6.78999996   2.11999989  48.66000366
