96

S    17.09000015   5.32000017  57.81999969
C    19.86999893   5.05999994  57.25000000
C    18.54999924   4.90999985  56.88999939
C    18.20999908   4.46000004  55.58000183
C    19.19999886   4.38000011  54.61000061
C    20.53999901   4.67999983  54.94999695
C    21.59000015   4.69000006  53.99000168
C    22.89999962   4.97000027  54.31999969
C    23.21000099   5.42999983  55.63000107
C    22.21999931   5.51999998  56.58000183
C    20.90999985   5.03999996  56.29000092
C    16.77999878   4.32000017  55.35999680
C    16.05999947   4.86999989  56.45000076
C    14.70000076   5.14999962  56.43000031
C    24.64999962   5.69999981  56.00999832
H    25.01375389   5.16506863  56.88728333
H    20.03000069   5.55000019  58.20999908
H    18.93000031   4.05000019  53.61000061
H    21.35999870   4.41000032  52.97000122
H    23.64000130   4.78999996  53.54999924
H    22.34000015   5.88000011  57.60000229
H    14.22999954   5.49000025  57.34000397
H    25.28000069   5.56999969  55.13000107
H    24.70999908   6.77999973  56.20999908
S    13.64999962   3.98000002  52.78999710
C    10.98000050   3.65999985  53.46000290
C    12.25000000   4.00000000  53.88000107
C    12.56999969   4.50000000  55.18000031
C    11.51999950   4.59000015  56.07999802
C    10.24000072   4.11000013  55.72000122
C     9.19000053   4.15000010  56.69000244
C     7.96000004   3.58999991  56.44000244
C     7.65999985   3.07000017  55.15999603
C     8.57999992   3.25000000  54.15000153
C     9.92999935   3.61000013  54.40999985
C    14.01000023   4.69000006  55.30000305
C    14.73000050   4.28000021  54.15999985
C    16.11999893   4.15999985  54.13000107
C     6.26999950   2.59999990  54.79000092
H     5.82814932   3.24139595  54.02745438
H    10.85999966   3.32999992  52.43000031
H    11.73999977   4.94999981  57.08000183
H     9.44999981   4.67000008  57.61000061
H     7.20000029   3.73000002  57.21000290
H     8.19999981   2.94000006  53.18000031
H    16.65999985   4.09000015  53.18999863
H     5.64000034   2.56000018  55.70000076
H     6.44000006   1.58000004  54.45000076
S    14.11999893   1.84000003  49.86000061
C    11.43000031   1.35000002  50.52999878
C    12.76999950   1.18000007  50.79999924
C    13.15999985   0.59000003  52.04000092
C    12.25999928   0.20999999  53.02999878
C    10.86999989   0.32000002  52.77999878
C     9.85000038  -0.23000000  53.59000397
C     8.59000015  -0.45000002  53.08000183
C     8.17000008   0.14000000  51.86000061
C     9.13999939   0.78000003  51.12999725
C    10.52000046   0.78000003  51.45999908
C    14.59000015   0.71999997  52.29999924
C    15.17000008   1.43999994  51.23000336
C    16.51000023   1.80999994  51.27999878
C     6.71000004   0.17999999  51.45999908
H     6.38225937  -0.67497557  50.86864090
H    11.09000015   2.03999996  49.77000427
H    12.56999969  -0.35999998  53.89999771
H    10.11999989  -0.71000004  54.52999878
H     7.97999954  -1.10000002  53.69999695
H     8.78999996   1.21000004  50.19000244
H    16.93000031   2.37000012  50.44000244
H     6.11000013   0.20999999  52.37999725
H     6.50000000   1.07000005  50.84999847
S    17.89999962   0.25000000  54.59000015
C    20.59999847   0.83999997  54.03999710
C    19.27000046   0.96000004  53.70999908
C    18.75000000   1.50000000  52.49000168
C    19.68000031   2.06999993  51.63999939
C    21.05999947   1.86000001  51.84999847
C    21.98999786   2.40999985  50.91999817
C    23.31999969   2.52999997  51.26999664
C    23.81999969   2.02999997  52.50000000
C    22.93999863   1.41000009  53.36000061
C    21.54000092   1.38000000  53.11999893
C    17.30999947   1.36999989  52.34000397
C    16.67000008   0.64999998  53.37999725
C    15.31999969   0.28999999  53.40999985
C    25.28000069   2.19000006  52.84999847
H    25.47154999   2.00554609  53.90706253
H    21.04999924   0.43000001  54.93999863
H    19.34000015   2.57999992  50.73999786
H    21.54999924   3.01999998  50.13999939
H    23.92999840   3.17000008  50.65000153
H    23.19999886   1.01999998  54.34000015
H    14.88000011  -0.17999999  54.27999878
H    25.48999977   3.23000002  52.57999802
H    25.89999962   1.57000005  52.18000031
