96

S    17.40999985   5.50000000  58.16999817
C    20.15999985   5.63000011  57.43000031
C    18.85000038   5.35000038  57.14000320
C    18.47999954   4.63000011  55.96000290
C    19.45999908   4.32000017  55.04000092
C    20.79999924   4.69000006  55.31999969
C    21.83000183   4.33999968  54.40999985
C    23.16999817   4.53999996  54.62999725
C    23.54999924   5.09999990  55.89000320
C    22.62000084   5.42000008  56.84999847
C    21.22999954   5.28999996  56.56000137
C    17.05999947   4.38000011  55.77999878
C    16.34000015   4.80999994  56.93000031
C    14.96000099   4.92000008  57.00000000
C    25.03999901   5.25000000  56.10000229
H    25.41686630   5.01534748  57.09549713
H    20.40999985   6.02999973  58.40999985
H    19.26000023   3.82999992  54.09000015
H    21.54000092   3.82999992  53.50000000
H    23.97000122   4.33999968  53.92000198
H    22.95999908   5.65999985  57.84999847
H    14.42000008   5.33999968  57.84999847
H    25.55000114   4.59999990  55.38000107
H    25.35000038   6.25999975  55.81999969
S    13.93000031   3.49000001  53.39000320
C    11.18000031   3.56999993  53.95999908
C    12.46999931   3.86000013  54.33000183
C    12.81999969   4.36999989  55.63000107
C    11.80999947   4.65000010  56.52999878
C    10.47000027   4.42000008  56.13999939
C     9.36999989   4.72000027  57.00000000
C     8.06999969   4.50000000  56.62000275
C     7.78999996   3.72000003  55.45999908
C     8.78999996   3.49000001  54.54000092
C    10.14000034   3.78999996  54.89999771
C    14.25000000   4.40000010  55.90999985
C    14.93999958   3.86999989  54.79999924
C    16.32999992   3.84000015  54.71000290
C     6.39999962   3.16000009  55.33000183
H     5.78026295   3.72274971  54.63190460
H    10.86999989   3.02999997  53.06999969
H    11.98999977   5.13000011  57.49000168
H     9.52999973   5.07999992  58.01000214
H     7.27999973   4.67999983  57.35000229
H     8.56999969   3.12999988  53.54000092
H    16.82999992   3.63999987  53.77999878
H     5.92000008   3.07999992  56.31999969
H     6.46000004   2.09999990  55.05000305
S    17.85000038   5.55999994  52.09999847
C    20.56999969   5.69999981  51.42000198
C    19.27999878   5.35000038  51.07999802
C    18.89999962   4.90999985  49.77000427
C    19.88000107   4.69000006  48.81999969
C    21.21000099   5.07000017  49.13000107
C    22.23999977   4.82999992  48.16999817
C    23.54000092   5.17000008  48.47000122
C    23.88000107   5.82000017  49.68000031
C    22.93000031   5.92999983  50.68000031
C    21.56999969   5.61999989  50.40999985
C    17.46000099   4.92000008  49.56999969
C    16.75000000   5.32000017  50.72999954
C    15.36000061   5.42000008  50.77000046
C    25.27000046   6.35999966  49.87999725
H    25.72366714   5.72203112  50.63846970
H    20.86000061   5.97000027  52.43000031
H    19.45999908   4.42999983  47.85999680
H    22.13999939   4.41000032  47.18000031
H    24.25000000   5.14999962  47.64999771
H    23.19999886   6.25999975  51.68000031
H    14.78000069   5.65999985  51.65999985
H    25.84000015   6.25000000  48.95000076
H    25.35000038   7.37999964  50.27999878
S    14.26000023   4.19999981  47.11999893
C    11.56999969   4.19999981  47.70999908
C    12.84000015   4.50000000  48.13999939
C    13.20000076   4.88000011  49.47000122
C    12.18999958   4.86999989  50.40999985
C    10.84000015   4.59000015  50.06999969
C     9.77000046   4.59999990  51.00999832
C     8.52999973   4.15000010  50.63000107
C     8.23000050   3.84000015  49.27999878
C     9.19999981   4.03999996  48.31999969
C    10.54999924   4.30999994  48.68999863
C    14.63999939   5.07000017  49.62999725
C    15.32999992   4.69000006  48.44999695
C    16.70999908   4.50000000  48.46000290
C     6.91999960   3.19000006  48.88999939
H     6.37247753   3.90106821  48.27136993
H    11.31999969   3.81999993  46.72000122
H    12.44999981   5.13000011  51.43000031
H    10.01999950   4.65999985  52.05999756
H     7.85000038   4.05999994  51.46999741
H     8.98999977   3.76999998  47.29000092
H    17.13000107   4.09999990  47.54000092
H     6.26999950   2.87999988  49.72000122
H     7.17000008   2.33999991  48.23999786
