96

S    17.26000023   5.52999973  58.20000076
C    19.95000076   5.50000000  57.43999863
C    18.64999962   5.17000008  57.14000320
C    18.20999908   4.57999992  55.91999817
C    19.17000008   4.46000004  54.93999863
C    20.50000000   4.92999983  55.10000229
C    21.54999924   4.74000025  54.15999985
C    22.86999893   4.96000004  54.48999786
C    23.23999786   5.55999994  55.72000122
C    22.23999977   5.82999992  56.63000107
C    20.89999962   5.40000010  56.39999771
C    16.76000023   4.63000011  55.77999878
C    16.09000015   5.03999996  56.95999908
C    14.70000076   5.10999966  56.97999954
C    24.63000107   6.00000000  56.10000229
H    24.97163963   5.39501238  56.93986893
H    20.09000015   6.10000038  58.34000015
H    18.95000076   3.97000027  53.99000168
H    21.31000137   4.33999968  53.18000031
H    23.57999992   4.76000023  53.68999863
H    22.52000046   6.37000036  57.52999878
H    14.27000046   5.35000038  57.95000076
H    25.28000069   5.89999962  55.21999741
H    24.65999985   7.07999992  56.24000168
S    13.53999996   3.77999997  53.40000153
C    10.85999966   3.82999992  53.99000168
C    12.13000107   4.11999989  54.43000031
C    12.46999931   4.65000010  55.72000122
C    11.44999981   4.86999989  56.63000107
C    10.11999989   4.63000011  56.22000122
C     9.03999996   4.72000027  57.15000153
C     7.73999977   4.48000002  56.79000092
C     7.48000050   4.05000019  55.45999908
C     8.47000027   3.88999987  54.52000046
C     9.81999969   4.11999989  54.91000366
C    13.90999985   4.76000023  55.87999725
C    14.59000015   4.38000011  54.68999863
C    15.98000050   4.32000017  54.65999985
C     6.06999969   3.61999989  55.10000229
H     5.66254425   4.32768583  54.37801743
H    10.64000034   3.32999992  53.06000137
H    11.57999992   5.18000031  57.65999603
H     9.26999950   5.05999994  58.15000153
H     6.90999985   4.42999983  57.49000168
H     8.21000004   3.50000000  53.54000092
H    16.50000000   3.96000004  53.77999878
H     5.45000029   3.48000002  55.98999786
H     6.15000010   2.61999989  54.65000153
S    17.43999863   5.80999947  52.04000092
C    20.17999840   5.69999981  51.36000061
C    18.88000107   5.35000038  51.10000229
C    18.53000069   4.80999994  49.81999969
C    19.51000023   4.51999998  48.88999939
C    20.82999992   4.99000025  49.08000183
C    21.84999847   4.94999981  48.09000015
C    23.15999985   5.23000002  48.36999893
C    23.51000023   5.72000027  49.65999985
C    22.47999954   6.09000015  50.48999786
C    21.15999985   5.59000015  50.34000015
C    17.09000015   4.63000011  49.72999954
C    16.35000038   5.03000021  50.87999725
C    14.96999931   5.13000011  50.86000061
C    24.94999886   6.01999998  50.00999832
H    25.35294914   5.52515030  50.89365768
H    20.50000000   6.17000008  52.29000092
H    19.27000046   4.00999975  47.95999908
H    21.54000092   4.51000023  47.14000320
H    24.01000023   5.00999975  47.72999573
H    22.72000122   6.63000011  51.40999603
H    14.42999935   5.60999966  51.68000031
H    25.62000084   5.92999983  49.15000153
H    24.82000160   7.07999992  50.26000214
S    13.94999981   3.88000011  47.28000259
C    11.23000050   3.78999996  47.88999939
C    12.46999931   4.30999994  48.15999985
C    12.76999950   4.79999971  49.47999954
C    11.72999954   5.00000000  50.38000107
C    10.40999985   4.61999989  50.05000305
C     9.26000023   4.90000010  50.84000015
C     7.96999979   4.59000015  50.47999954
C     7.67000008   4.09999990  49.19000244
C     8.78000069   3.84000015  48.41999817
C    10.14999962   3.97000027  48.79000092
C    14.19999981   4.85000038  49.72999954
C    14.98000050   4.38000011  48.63999939
C    16.36999893   4.26999998  48.59000397
C     6.32000017   3.58999991  48.72000122
H     5.87057161   4.18923807  47.92815018
H    11.03000069   3.40999985  46.88999939
H    11.97999954   5.17000008  51.42000198
H     9.31999969   5.35000038  51.83000183
H     7.13000011   4.80999994  51.13999939
H     8.73999977   3.35000014  47.44999695
H    16.79999924   4.00999975  47.63000107
H     5.55000019   3.44000006  49.48999786
H     6.53999996   2.53999996  48.47000122
