96

S    17.11000061   5.49000025  57.93000031
C    19.80999947   5.38000011  57.23999786
C    18.52000046   4.97000027  56.98999786
C    18.17000008   4.30999994  55.76000214
C    19.22999954   4.07000017  54.91000366
C    20.58000183   4.44000006  55.13000107
C    21.61000061   4.30000019  54.15000153
C    22.86999893   4.80999994  54.34000015
C    23.15000153   5.59000015  55.50000000
C    22.14999962   5.80999947  56.42000198
C    20.86999893   5.18000031  56.31999969
C    16.73999977   4.46000004  55.54999924
C    16.00000000   4.90000010  56.66999817
C    14.60999966   4.98000002  56.65999985
C    24.56999969   6.03999996  55.77000046
H    25.05457878   5.22761726  56.31158829
H    20.05000114   5.98000002  58.11000061
H    18.89999962   3.68999982  53.94000244
H    21.44000053   3.91000009  53.15999985
H    23.67000198   4.59000015  53.64999771
H    22.29999924   6.25999975  57.38999939
H    14.06999969   5.40000010  57.50999832
H    25.17000008   6.15000010  54.86000061
H    24.54999924   7.02000046  56.25999832
S    13.52000046   3.79999995  53.04999924
C    10.84000015   3.55999994  53.82999802
C    12.11999989   3.96000004  54.13000107
C    12.43999958   4.36999989  55.47000122
C    11.44999981   4.73000002  56.36000061
C    10.13000011   4.38000011  56.02000427
C     8.98999977   4.57999992  56.86000061
C     7.71000004   4.28000021  56.45000076
C     7.39000034   3.77999997  55.15999603
C     8.45000076   3.52999973  54.31000137
C     9.77999973   3.82999992  54.72999954
C    13.88000011   4.56999969  55.54000092
C    14.60999966   4.15000010  54.40000153
C    16.00000000   4.05999994  54.43000031
C     5.96000004   3.55999994  54.72000122
H     5.63964415   4.22206926  53.91555405
H    10.69000053   3.05999994  52.88000107
H    11.65999985   5.05999994  57.37999725
H     9.18000031   5.00999975  57.84000015
H     6.90999985   4.61999989  57.09999847
H     8.31999969   3.08999991  53.33000183
H    16.50000000   3.75999975  53.50999832
H     5.38999987   3.86000013  55.61000061
H     5.78000021   2.50000000  54.51000214
S    17.82999992   5.68000031  52.21000290
C    20.53999901   5.86000013  51.49000168
C    19.23999977   5.56999969  51.12999725
C    18.88000107   5.09999990  49.82999802
C    19.85000038   5.09999990  48.83999634
C    21.15999985   5.52999973  49.13999939
C    22.23999977   5.19000006  48.27000046
C    23.54000092   5.40000010  48.67000198
C    23.84000015   6.05999994  49.88999939
C    22.84000015   6.30999994  50.79999924
C    21.51000023   5.97000027  50.45999908
C    17.43999863   4.86000013  49.75999832
C    16.69999886   5.21000004  50.91999817
C    15.31999969   5.36999989  50.94999695
C    25.25000000   6.46000004  50.25000000
H    25.74081421   5.86248636  51.01823044
H    20.76999855   5.82999992  52.55000305
H    19.68000031   4.71000004  47.84000015
H    22.06000137   4.67999983  47.32999802
H    24.30000114   4.76999998  48.20000076
H    23.13999939   6.57999992  51.81000137
H    14.80999947   5.89999962  51.73999786
H    25.89999962   6.37000036  49.36999893
H    25.25000000   7.49000025  50.61000061
S    14.25000000   4.15999985  47.31999969
C    11.54000092   4.09999990  47.98999786
C    12.82999992   4.42999983  48.36000061
C    13.14000034   4.98000002  49.64000320
C    12.07999992   5.28999996  50.47999954
C    10.77000046   4.90000010  50.13000107
C     9.71000004   4.97000027  51.07999802
C     8.40999985   4.71000004  50.72000122
C     8.09000015   4.13999987  49.45999908
C     9.11999989   3.82999992  48.61000061
C    10.46000004   4.21999979  48.89999771
C    14.59000015   5.00000000  49.80999756
C    15.31999969   4.56999969  48.68000031
C    16.70999908   4.48999977  48.62999725
C     6.71999979   3.54999995  49.20000076
H     6.17163706   4.23367357  48.55193710
H    11.46999931   3.78999996  46.95000076
H    12.23999977   5.65999985  51.49000168
H     9.98999977   5.23999977  52.09999847
H     7.63000011   4.72000027  51.47999573
H     8.93000031   3.19999981  47.74000168
H    17.22999954   4.21000004  47.71999741
H     6.21999979   3.49000001  50.17000198
H     6.83000040   2.51999998  48.85000229
