96

S    17.19000053   5.32000017  57.90000153
C    19.89999962   5.42999983  57.29000092
C    18.63000107   5.10999966  56.88999939
C    18.27000046   4.57999992  55.59999847
C    19.34000015   4.30999994  54.75999832
C    20.68000031   4.55000019  55.12000275
C    21.77000046   4.32999992  54.22999954
C    23.05000114   4.69999981  54.56999969
C    23.35000038   5.23000002  55.86000061
C    22.32000160   5.42000008  56.75000000
C    20.96999931   5.12000036  56.40999603
C    16.84000015   4.42999983  55.40999985
C    16.13000107   4.76000023  56.59000015
C    14.75999928   5.00000000  56.59999847
C    24.77000046   5.63000011  56.18999863
H    25.24027634   5.04571724  56.98091888
H    20.07999802   5.59000015  58.34999847
H    19.14999962   3.88000011  53.77999878
H    21.45999908   4.00999975  53.23999786
H    23.72999954   4.63000011  53.73000336
H    22.47999954   5.77000046  57.76000214
H    14.19999981   5.33999968  57.45999908
H    25.42000008   5.36000013  55.34999847
H    24.89999962   6.70000029  56.37000275
S    13.61999989   3.68000007  53.04000092
C    10.90999985   3.54999995  53.82999802
C    12.20000076   3.96000004  54.06999969
C    12.60000038   4.48000002  55.34000015
C    11.56999969   4.61999989  56.25999832
C    10.21999931   4.25000000  56.04999924
C     9.22000027   4.40000010  57.04000092
C     7.90999985   4.09000015  56.77999878
C     7.53000021   3.63999987  55.47999954
C     8.47999954   3.45999980  54.50000000
C     9.85000038   3.75000000  54.75000000
C    14.04999924   4.61999989  55.45000076
C    14.75999928   4.13999987  54.31999969
C    16.13999939   4.02999973  54.26000214
C     6.11999989   3.12999988  55.30000305
H     5.55256891   3.69743109  54.56234360
H    10.71000004   3.35999990  52.77000046
H    11.72999954   5.00000000  57.25999832
H     9.50000000   4.85000038  57.98999786
H     7.09999990   4.44999981  57.41000366
H     8.31999969   3.15000010  53.47000122
H    16.68000031   3.65999985  53.39000320
H     5.58000040   3.14000010  56.25999832
H     6.21999979   2.04999995  55.15999603
S    17.59000015   6.01999998  52.11000061
C    20.34000015   5.88999987  51.49000168
C    19.03000069   5.69000006  51.11999893
C    18.68999863   5.22000027  49.80999756
C    19.64999962   4.98000002  48.85000229
C    21.00000000   5.12000036  49.25000000
C    22.03000069   4.76999998  48.33000183
C    23.36999893   4.94999981  48.55999756
C    23.68999863   5.47999954  49.84000397
C    22.75000000   5.75999975  50.80999756
C    21.37000084   5.52999973  50.58000183
C    17.25000000   5.22000027  49.64000320
C    16.50000000   5.55999994  50.79000092
C    15.11000061   5.46999979  50.84999847
C    25.13000107   5.86000013  50.11000061
H    25.54345131   5.28259468  50.93690109
H    20.52000046   6.32999992  52.45999908
H    19.40000153   4.61999989  47.84999847
H    21.63000107   4.48999977  47.36000061
H    24.11000061   4.86000013  47.77000046
H    23.05000114   6.30000019  51.70000076
H    14.68999958   5.63000011  51.84000015
H    25.78000069   5.65000010  49.25000000
H    25.09000015   6.93000031  50.34000015
S    14.04000092   4.40000010  47.19999695
C    11.30000019   4.17000008  47.90000153
C    12.58999920   4.55000019  48.22000122
C    12.92000008   5.09000015  49.50000000
C    11.85999966   5.26000023  50.38000107
C    10.52999973   4.88000011  50.12000275
C     9.47000027   5.17000008  51.03000259
C     8.19000053   4.88999987  50.61000061
C     7.86999989   4.19999981  49.40999985
C     8.92000008   3.86999989  48.57999802
C    10.22999954   4.34999990  48.81999969
C    14.34999943   5.19000006  49.71000290
C    15.10000038   4.81999969  48.55999756
C    16.48999977   4.82999992  48.53000259
C     6.46000004   3.74000025  49.15000153
H     5.94096470   4.32302618  48.38922501
H    11.03999996   3.60000014  47.01000214
H    12.05999947   5.78000021  51.31999969
H     9.48999977   5.65000010  52.00000000
H     7.30000019   5.22000027  51.14999771
H     8.71999931   3.30000019  47.67000198
H    17.05000114   4.44000006  47.69000244
H     5.97000027   3.88999987  50.12000275
H     6.56000042   2.68000007  48.86000061
