96

S    17.22999954   5.60999966  57.81000137
C    19.92000008   5.56999969  57.05999756
C    18.60999870   5.31000042  56.73999786
C    18.15999985   4.75000000  55.50000000
C    19.12999916   4.50000000  54.54000092
C    20.48999977   4.82999992  54.75999832
C    21.51000023   4.56999969  53.80000305
C    22.79999924   4.98000002  54.05000305
C    23.19000053   5.65000010  55.24000168
C    22.22999954   5.78000021  56.22000122
C    20.88999939   5.36000013  56.04000092
C    16.70999908   4.77999973  55.37000275
C    16.04999924   5.23000002  56.53999710
C    14.65999985   5.26999998  56.63999939
C    24.61999893   6.01999998  55.52999878
H    25.02448273   5.43101692  56.35315704
H    20.15999985   6.00000000  58.02999878
H    18.88000107   4.00999975  53.61000061
H    21.12999916   4.23999977  52.84000015
H    23.50000000   4.98000002  53.22000122
H    22.46999931   6.40999985  57.08000183
H    14.17000008   5.63000011  57.54000092
H    25.20000076   5.96000004  54.59999847
H    24.68000031   7.07999992  55.80999756
S    13.40999985   3.93000007  53.09999847
C    10.73999977   3.82999992  53.88999939
C    12.03999996   4.18000031  54.19000244
C    12.38999939   4.77999973  55.44000244
C    11.36000061   5.01999950  56.32999802
C    10.01000023   4.76000023  56.00999832
C     8.93000031   4.97000027  56.90999985
C     7.63000011   4.56999969  56.72000122
C     7.32999992   3.88999987  55.50000000
C     8.30999947   3.72000003  54.55999756
C     9.67000008   4.07999992  54.78000259
C    13.83999920   4.86000013  55.59000015
C    14.50000000   4.46999979  54.38999939
C    15.88999939   4.35999966  54.31999969
C     5.96000004   3.30999994  55.27000046
H     5.42669868   3.82907963  54.47360611
H    10.52000046   3.38000011  52.93000031
H    11.51999950   5.50000000  57.29000092
H     9.26999950   5.19000006  57.91999817
H     6.94000006   4.59000015  57.55000305
H     8.10000038   3.19999981  53.62999725
H    16.27000046   4.00999975  53.36999893
H     5.36000013   3.25999999  56.18999863
H     6.09000015   2.28999996  54.88999939
S    14.09999943   1.88999999  50.27000046
C    11.49000072   1.38999999  50.91999817
C    12.81000042   1.23000002  51.29000092
C    13.27999973   0.73000002  52.54000092
C    12.34000015   0.27000001  53.43999863
C    10.98000050   0.41000003  53.09000015
C     9.92000008  -0.05000000  53.93000031
C     8.56000042  -0.01000000  53.69999695
C     8.15999985   0.46999997  52.43000031
C     9.11999989   0.94999999  51.56000137
C    10.52000046   0.83999997  51.79999924
C    14.72000027   0.93000001  52.70000076
C    15.26999950   1.58000004  51.56999969
C    16.62999916   1.86000001  51.47999573
C     6.70000029   0.78000003  52.18000031
H     6.33818626   0.34014797  51.25063324
H    11.23000050   1.90999997  50.00000000
H    12.63000011  -0.06000000  54.43999863
H    10.29999924  -0.48000002  54.85000229
H     7.83999968  -0.32999998  54.45000076
H     8.75000000   1.50000000  50.70999908
H    17.05000114   2.38999987  50.63999939
H     6.15999985   0.35999998  53.02999878
H     6.69000053   1.87999988  52.25000000
S    18.09000015   0.38000000  54.91000366
C    20.73999786   0.65999997  54.03999710
C    19.40000153   0.85000002  53.81000137
C    18.92000008   1.41000009  52.57999802
C    19.78000069   1.86000001  51.59000015
C    21.15999985   1.80999994  51.86999893
C    22.04000092   2.42000008  50.93000031
C    23.39999962   2.31999993  51.11000061
C    23.90000153   1.67999995  52.28000259
C    23.05000114   1.10000002  53.18999863
C    21.63000107   1.10000002  53.02999878
C    17.46000099   1.46000004  52.52999878
C    16.90000153   0.82000005  53.66000366
C    15.53999996   0.59000003  53.77999878
C    25.38999939   1.51999998  52.49000168
H    25.69542122   1.70467329  53.51991272
H    21.07999992   0.23000000  54.98000336
H    19.42000008   2.36000013  50.70000076
H    21.77000046   2.84999990  49.98000336
H    24.06999969   2.61000013  50.31000137
H    23.45000076   0.56999999  54.05000305
H    15.11999989  -0.05000000  54.55999756
H    25.92000008   2.25000000  51.86999893
H    25.73999786   0.50999999  52.22000122
