96

S    16.87000084   5.36999989  58.18000031
C    19.63999939   5.51999998  57.67000198
C    18.37000084   5.19000006  57.25000000
C    18.12999916   4.76000023  55.90999985
C    19.15999985   4.59000015  55.00999832
C    20.48000145   4.94999981  55.38999939
C    21.60000038   4.82999992  54.52000046
C    22.81999969   5.25000000  54.98000336
C    23.09000015   5.53999996  56.35000229
C    22.04000092   5.51999998  57.22999954
C    20.71000099   5.31000042  56.76000214
C    16.70999908   4.67000008  55.59000015
C    15.93000031   5.03999996  56.70999908
C    14.55999947   5.28999996  56.62000275
C    24.44999886   5.98999977  56.81999969
H    24.91999435   5.33485460  57.55347824
H    19.78000069   5.69000006  58.73000336
H    18.98999977   3.95000005  54.13999939
H    21.45000076   4.55999994  53.47000122
H    23.71000099   5.42000008  54.38000107
H    22.10000038   5.97000027  58.22000122
H    14.09999943   5.61999989  57.54000092
H    25.13000107   6.11000013  55.96000290
H    24.34999847   7.00000000  57.23999786
S    13.50999928   3.91000009  53.08000183
C    10.80999947   3.67000008  53.88000107
C    12.06999969   4.18000031  54.08000183
C    12.46000099   4.78999996  55.31999969
C    11.49000072   4.92000008  56.29000092
C    10.13000011   4.59000015  56.05999756
C     9.11999989   4.76000023  57.04999924
C     7.79999971   4.53999996  56.73999786
C     7.46999979   3.81999993  55.56000137
C     8.46000004   3.44000006  54.68000031
C     9.80000019   3.86999989  54.86000061
C    13.90999985   4.90999985  55.44000244
C    14.65000057   4.42000008  54.34000015
C    16.03000069   4.23999977  54.45000076
C     6.00000000   3.52999973  55.38000107
H     5.55857420   3.97854567  54.49002838
H    10.67999935   3.05000019  53.00000000
H    11.77000046   5.33999968  57.25999832
H     9.35999966   5.17000008  58.02000046
H     7.07999992   4.88000011  57.48000336
H     8.17000008   2.94000006  53.75000000
H    16.48999977   3.81999993  53.55999756
H     5.46000004   3.81000018  56.29000092
H     5.82999992   2.46000004  55.18000031
S    17.48999977   5.93999958  51.98999786
C    20.19000053   5.92000008  51.25000000
C    18.88000107   5.65000010  50.91999817
C    18.52000046   5.05000019  49.66999817
C    19.57999992   4.90999985  48.79000092
C    20.90999985   5.33999968  48.99000168
C    21.96000099   5.19999981  48.04000092
C    23.29000092   5.36999989  48.33000183
C    23.57000160   6.01999998  49.56999969
C    22.59000015   6.24000025  50.51000214
C    21.22999954   5.88999987  50.27999878
C    17.06999969   4.97000027  49.55999756
C    16.36999893   5.45000029  50.70000076
C    14.98999977   5.61999989  50.72000122
C    24.92000198   6.61999989  49.86999893
H    25.43232918   6.05074644  50.64561081
H    20.27000046   6.23000050  52.29000092
H    19.36000061   4.33999968  47.90000153
H    21.73000145   4.88000011  47.02999878
H    24.05999947   5.15999985  47.60000229
H    22.67999840   6.75000000  51.45999908
H    14.51000023   6.11999989  51.55000305
H    25.52999878   6.63000011  48.95999908
H    24.70000076   7.63000011  50.24000168
S    13.82999992   3.93000007  47.30999756
C    11.13000011   3.86999989  48.09000015
C    12.41000080   4.32999992  48.29999924
C    12.77999973   4.97000027  49.52000046
C    11.78999996   5.25000000  50.45000076
C    10.46000004   4.82999992  50.24000168
C     9.44000053   4.99000025  51.22000122
C     8.15999985   4.56999969  50.97000122
C     7.79999971   3.84000015  49.79999924
C     8.78000069   3.61999989  48.87000275
C    10.11999989   4.05999994  49.06999969
C    14.22000027   5.10999966  49.66999817
C    14.92000008   4.55000019  48.56999969
C    16.31000137   4.50000000  48.48999786
C     6.35999966   3.45999980  49.52999878
H     5.88229179   4.03752756  48.73857117
H    11.03000069   3.23000002  47.21000290
H    12.03999996   5.78999996  51.36000061
H     9.59999943   5.44000053  52.18999863
H     7.26999998   4.82999992  51.52999878
H     8.64000034   3.05000019  47.95000076
H    16.84000015   4.01999998  47.67000198
H     5.82999992   3.58000016  50.48999786
H     6.28999996   2.40999985  49.22000122
