96

S    17.48999977   5.44000053  58.04999924
C    20.20000076   5.38999987  57.43999863
C    18.90999985   5.21000004  57.00000000
C    18.54999924   4.74000025  55.70000076
C    19.61000061   4.67000008  54.81999969
C    20.94000053   5.05000019  55.13000107
C    22.03000069   4.88999987  54.22000122
C    23.31000137   5.18000031  54.62999725
C    23.61000061   5.60999966  55.94999695
C    22.59000015   5.66999960  56.86999893
C    21.25000000   5.35000038  56.50000000
C    17.13000107   4.44000006  55.54999924
C    16.46999931   4.77999973  56.75000000
C    15.07999992   4.88999987  56.73999786
C    24.99000168   6.05000019  56.38000107
H    25.41752625   5.34458399  57.09254074
H    20.36999893   5.65000010  58.48999786
H    19.37000084   4.28000021  53.82999802
H    21.77999878   4.42999983  53.27000046
H    24.06999969   5.01999950  53.88000107
H    22.78000069   5.84000015  57.93000031
H    14.63000107   5.26999998  57.64999771
H    25.55999947   6.11999989  55.44000244
H    24.93999863   7.09000015  56.72000122
S    13.96000004   4.11999989  53.02000046
C    11.19999981   4.32000017  53.60000229
C    12.51000023   4.46000004  53.99000168
C    12.92000008   4.76000023  55.33000183
C    11.94000053   4.99000025  56.26999664
C    10.57000065   4.82999992  55.93999863
C     9.59999943   4.72000027  56.97999954
C     8.31999969   4.33999968  56.66999817
C     7.92999983   3.98999977  55.34999847
C     8.84000015   4.13000011  54.33000183
C    10.21000004   4.42999983  54.61000061
C    14.35999966   4.65999985  55.56999969
C    15.05000019   4.23000002  54.40999985
C    16.43000031   4.05000019  54.40000153
C     6.57000017   3.49000001  54.93999863
H     6.05767059   4.13752747  54.22843170
H    10.88000107   3.72000003  52.75000000
H    12.17000008   5.12000036  57.31999969
H     9.85999966   4.80999994  58.02999878
H     7.68000031   3.97000027  57.48000336
H     8.61999989   3.75999975  53.33000183
H    16.90999985   3.84000015  53.44999695
H     6.01000023   3.53999996  55.87999725
H     6.67000008   2.46000004  54.58000183
S    17.86999893   6.39999962  52.08000183
C    20.56999969   6.46000004  51.49000168
C    19.30999947   6.06999969  51.10000229
C    19.00000000   5.33999968  49.91000366
C    20.07999802   5.03000021  49.10999680
C    21.40000153   5.40999985  49.45999908
C    22.46000099   5.23000002  48.53000259
C    23.75999832   5.56999969  48.82999802
C    24.02000046   6.42000008  49.93999863
C    23.00000000   6.65000010  50.84000015
C    21.68000031   6.15000010  50.65999985
C    17.56999969   5.32000017  49.61999893
C    16.86000061   5.86000013  50.72000122
C    15.47000027   5.92999983  50.72000122
C    25.38999939   6.97000027  50.25000000
H    25.84510231   6.44378757  51.08909607
H    20.76999855   7.05999947  52.37999725
H    19.89999962   4.59999990  48.13000107
H    22.18000031   4.88000011  47.54000092
H    24.57999992   5.15999985  48.25000000
H    23.11000061   7.17000008  51.79000092
H    15.00000000   6.32000017  51.62000275
H    26.02000046   7.03999996  49.36000061
H    25.27000046   8.01000023  50.58000183
S    14.47000027   4.46999979  47.14000320
C    11.73999977   4.35999966  47.75000000
C    13.02000046   4.72000027  48.11999893
C    13.30000019   5.31000042  49.38999939
C    12.23999977   5.68000031  50.20000076
C    10.92000008   5.38000011  49.79999924
C     9.88000011   5.60999966  50.72999954
C     8.59000015   5.19999981  50.47000122
C     8.27000046   4.48000002  49.29000092
C     9.30000019   4.26000023  48.40999985
C    10.62999916   4.76000023  48.53000259
C    14.73000050   5.46999979  49.61999893
C    15.47000027   4.98000002  48.52000427
C    16.86000061   4.88999987  48.48999786
C     6.88000011   3.93000007  49.03999710
H     6.46700001   4.44269037  48.17127228
H    11.57999992   3.67000008  46.93000031
H    12.53000069   6.15999985  51.12999725
H    10.01999950   5.97000027  51.75000000
H     7.82999992   5.38000011  51.23000336
H     9.06999969   3.55999994  47.61000061
H    17.38999939   4.46000004  47.64999771
H     6.32999992   4.11000013  49.95999908
H     6.96000004   2.84000015  48.90999603
