96

S    17.35999870   4.94000006  58.08000183
C    20.05000114   4.92999983  57.32999802
C    18.73999977   4.61999989  57.02000046
C    18.32999992   4.34999990  55.66999817
C    19.31999969   4.28000021  54.69999695
C    20.69000053   4.39000034  55.02999878
C    21.70999908   4.40000010  54.05000305
C    22.98000145   4.84000015  54.34999847
C    23.38000107   5.26000023  55.65000153
C    22.39999962   5.26999998  56.60999680
C    21.04999924   4.88000011  56.32999802
C    16.88999939   4.44000006  55.50000000
C    16.22999954   4.76000023  56.72000122
C    14.84000015   4.81999969  56.72999954
C    24.82999992   5.59999990  55.90999985
H    25.22990227   4.95015669  56.68838501
H    20.22999954   5.31000042  58.33000183
H    19.05999947   4.19000006  53.64999771
H    21.45999908   4.13000011  53.02000046
H    23.75000000   4.88999987  53.59000397
H    22.57999802   5.72000027  57.57999802
H    14.39000034   4.88000011  57.70999908
H    25.28000069   5.36999989  54.93999863
H    24.87999916   6.67000008  56.14999771
S    13.71000099   3.91999984  53.02000046
C    10.97000027   3.65000010  53.68999863
C    12.25999928   4.00999975  54.03999710
C    12.64000034   4.50000000  55.31999969
C    11.64999962   4.67999983  56.27999878
C    10.29999924   4.42000008  55.94999695
C     9.22000027   4.57999992  56.86000061
C     7.94000053   4.13999987  56.65999985
C     7.65999985   3.45000005  55.45000076
C     8.63000011   3.42000008  54.47000122
C     9.96000004   3.88999987  54.65000153
C    14.06999969   4.56999969  55.59000015
C    14.77000046   4.26000023  54.40000153
C    16.15999985   4.19000006  54.34000015
C     6.30000019   2.89000010  55.11000061
H     5.82863474   3.48991966  54.33153152
H    10.67000008   3.23000002  52.74000168
H    11.96000004   5.03000021  57.25999832
H     9.59999943   4.98000002  57.80000305
H     7.14999962   4.26000023  57.39999771
H     8.50000000   2.89999986  53.53000259
H    16.55999947   3.82999992  53.39000320
H     5.78999996   2.84999990  56.07999802
H     6.48999977   1.87999988  54.69999695
S    13.68999958   1.65000010  50.21999741
C    11.05000019   1.07000005  50.97000122
C    12.39999962   1.00999999  51.25000000
C    12.93000031   0.46999997  52.47000122
C    12.02000046  -0.09999999  53.34000015
C    10.62999916  -0.07000000  53.09000015
C     9.63000011  -0.64999998  53.92000198
C     8.27999973  -0.73000002  53.66000366
C     7.81000042  -0.05000000  52.50999832
C     8.69999981   0.56000000  51.65999985
C    10.11000061   0.54000002  51.88999939
C    14.37000084   0.59999996  52.60000229
C    14.91000080   1.19999993  51.44000244
C    16.21999931   1.65999997  51.44000244
C     6.30999994   0.08000001  52.34000397
H     6.00442410  -0.05502190  51.30246353
H    10.59999943   1.57000005  50.12000275
H    12.32999992  -0.71000004  54.19000244
H     9.96000004  -0.97000003  54.91000366
H     7.64999962  -0.96000004  54.51000214
H     8.31999969   0.92000002  50.70999908
H    16.65999985   2.22000003  50.61999893
H     5.73000002  -0.62000000  52.95999908
H     6.14000034   1.12000000  52.63999939
S    17.69000053   0.19999999  54.82999802
C    20.30999947   0.68000007  54.02000046
C    18.96000099   0.79000002  53.75000000
C    18.48999977   1.41000009  52.55000305
C    19.42000008   1.93000007  51.66999817
C    20.81000137   1.82999992  51.91999817
C    21.73000145   2.34999990  50.97000122
C    23.08000183   2.16999984  51.13999939
C    23.52000046   1.62000000  52.36999893
C    22.67999840   1.14999998  53.36000061
C    21.28000069   1.14999998  53.09999847
C    17.04000092   1.28000009  52.50999832
C    16.51000023   0.46000001  53.54000092
C    15.18000031   0.04000000  53.60000229
C    24.96000099   1.94000006  52.68000031
H    25.42966652   1.33512771  53.45565796
H    20.65000153   0.14000000  54.89999771
H    19.02000046   2.37000012  50.76000214
H    21.31000137   2.77999997  50.06000137
H    23.69999886   2.68000007  50.40999985
H    23.05000114   0.83999997  54.33000183
H    14.73999977  -0.41999999  54.47000122
H    25.00999832   2.99000001  52.97999954
H    25.36999893   1.94999993  51.65999985
