96

S    16.98999977   5.42999983  57.85999680
C    19.70000076   5.47999954  57.15999985
C    18.40999985   5.09999990  56.84999847
C    18.12999916   4.67000008  55.52000046
C    19.18000031   4.48999977  54.64000320
C    20.52000046   4.88000011  54.87999725
C    21.63000107   4.72000027  54.00000000
C    22.86000061   5.23999977  54.31999969
C    23.12000084   5.77000046  55.61000061
C    22.07999992   5.73000002  56.51000214
C    20.75000000   5.32999992  56.22000122
C    16.68000031   4.61999989  55.33000183
C    15.95999908   5.07999992  56.45999908
C    14.57999992   5.19000006  56.45000076
C    24.51000023   6.28999996  55.93000031
H    24.91507530   5.79253769  56.81121826
H    19.82999992   6.05999994  58.06999969
H    18.96999931   3.86999989  53.76999664
H    21.50000000   4.15999985  53.06999969
H    23.64000130   5.18000031  53.56999969
H    22.32000160   6.15000010  57.49000168
H    14.09999943   5.58000040  57.35000229
H    25.19000053   6.05999994  55.10000229
H    24.54000092   7.37999964  56.10000229
S    13.53000069   3.95000005  52.77999878
C    10.85999966   3.73000002  53.53000259
C    12.13999939   4.09000015  53.87000275
C    12.46999931   4.67000008  55.13999939
C    11.50000000   4.74000025  56.11999893
C    10.18000031   4.32000017  55.83000183
C     9.11999989   4.57999992  56.75000000
C     7.82999992   4.32000017  56.37000275
C     7.48000050   3.71000004  55.13000107
C     8.51000023   3.40999985  54.27000046
C     9.85999966   3.77999997  54.54000092
C    13.92000008   4.76999998  55.28999710
C    14.60999966   4.39000034  54.12000275
C    16.00000000   4.36999989  54.13000107
C     6.06999969   3.26999998  54.82999802
H     5.77011681   3.76980519  53.90893173
H    10.50000000   3.40000010  52.56999969
H    11.84000015   5.17000008  57.05999756
H     9.32999992   4.86000013  57.77999878
H     7.03000021   4.67000008  57.02000046
H     8.23999977   3.21000004  53.23999786
H    16.56999969   4.21000004  53.22000122
H     5.33999968   3.60000014  55.58000183
H     6.01000023   2.19000006  54.61999893
S    14.14000034   1.74000001  50.10000229
C    11.46000004   1.13999999  50.77999878
C    12.79999924   1.08000004  51.05999756
C    13.27000046   0.56999999  52.30999756
C    12.30999947   0.02000000  53.13999939
C    10.92000008   0.17999999  52.94000244
C     9.89999962  -0.39999998  53.74000168
C     8.56000042  -0.32000002  53.43999863
C     8.17000008   0.48999998  52.34000397
C     9.09000015   1.12000000  51.52000046
C    10.46000004   0.82999998  51.73999786
C    14.70000076   0.78000003  52.51999664
C    15.29000092   1.44999993  51.42000198
C    16.65999985   1.67999995  51.37000275
C     6.69000053   0.55000001  52.04999924
H     6.40466118   0.17905915  51.06557846
H    11.05999947   1.54999995  49.86000061
H    12.64999962  -0.64000005  53.94000244
H    10.21999931  -0.96000004  54.61000061
H     7.88999987  -0.88999999  54.08000183
H     8.73999977   1.69000006  50.66999817
H    17.11000061   2.05999994  50.45999908
H     6.17000008   0.03000000  52.85999680
H     6.46000004   1.62000000  52.09999847
S    18.04999924   0.28999999  54.82999802
C    20.72999954   0.62000000  53.95000076
C    19.37999916   0.82000005  53.77999878
C    18.85000038   1.44999993  52.61000061
C    19.69000053   1.81999993  51.56999969
C    21.07999992   1.77999997  51.79000092
C    22.03000069   2.15000010  50.77999878
C    23.38000107   2.09000015  51.00999832
C    23.87000084   1.67999995  52.28000259
C    23.00000000   1.13000000  53.18999863
C    21.60000038   1.12000000  52.95000076
C    17.40999985   1.31999993  52.50000000
C    16.80999947   0.71999997  53.62999725
C    15.47999954   0.31000000  53.59000397
C    25.36000061   1.79000008  52.47000122
H    25.72208977   1.52730727  53.46397400
H    21.18999863   0.31000000  54.88999939
H    19.27999878   2.25000000  50.65999985
H    21.68000031   2.79999995  49.98000336
H    24.05999947   2.44000006  50.22999573
H    23.43000031   0.57999998  54.02999878
H    15.06000042  -0.39000002  54.29999924
H    25.55999947   2.84000015  52.25000000
H    25.92000008   1.15999997  51.77000046
