96

S    16.67000008   5.65999985  57.45999908
C    19.37000084   5.69999981  56.90999985
C    18.12999916   5.22000027  56.55000305
C    17.82999992   4.55999994  55.31000137
C    18.88000107   4.32000017  54.45000076
C    20.15999985   4.82999992  54.78000259
C    21.21000099   4.75000000  53.81999969
C    22.50000000   5.03999996  54.22999954
C    22.84000015   5.68000031  55.45000076
C    21.78999901   5.92000008  56.30000305
C    20.45000076   5.50000000  56.02000427
C    16.39000130   4.57999992  55.07999802
C    15.62000084   5.17000008  56.11999893
C    14.28999996   5.55999994  56.00000000
C    24.21999931   6.19000006  55.79999924
H    24.71846962   5.55623293  56.53346252
H    19.42000008   6.30000019  57.81000137
H    18.77000046   3.77999997  53.50999832
H    21.05999947   4.26000023  52.87000275
H    23.26999855   4.96000004  53.47000122
H    21.94000053   6.51000023  57.18999863
H    13.71999931   6.24000025  56.62000275
H    24.82000160   6.17999983  54.87999725
H    24.13999939   7.25000000  56.06999969
S    13.26000023   3.56999993  52.71999741
C    10.52999973   3.65999985  53.22999954
C    11.79999924   4.00999975  53.62999725
C    12.11999989   4.77999973  54.79999924
C    11.06999969   4.98000002  55.66999817
C     9.75000000   4.55000019  55.35999680
C     8.65999985   4.74000025  56.25000000
C     7.36000013   4.39000034  55.96000290
C     7.09999990   3.74000025  54.72999954
C     8.11999989   3.50000000  53.82999802
C     9.46000004   3.88000011  54.12000275
C    13.55999947   4.98000002  54.95999908
C    14.29999924   4.33999968  53.94000244
C    15.67999935   4.13999987  53.95999908
C     5.78999996   3.05000019  54.43000031
H     5.18475485   3.70508909  53.80339432
H    10.27999973   3.14000010  52.30999756
H    11.36999989   5.21000004  56.68000031
H     8.89999962   5.13999987  57.22999954
H     6.57999992   4.40000010  56.70999908
H     7.96999979   2.86000013  52.97000122
H    16.20000076   3.65000010  53.15000153
H     5.29999971   2.87999988  55.40000153
H     6.06999969   2.07999992  53.99000168
S    13.73999977   1.31999993  50.04000092
C    11.09000015   0.64000005  50.73999786
C    12.43000031   0.71999997  51.06999969
C    12.89999962   0.37000000  52.37999725
C    12.01000023  -0.11000000  53.31999969
C    10.62999916  -0.02000000  53.04999924
C     9.65999985  -0.39000002  54.02000046
C     8.34999943  -0.59000003  53.64999771
C     7.83999968  -0.09000000  52.42000198
C     8.73000050   0.43000001  51.52000046
C    10.14000034   0.39999998  51.76000214
C    14.34000015   0.54000002  52.52999878
C    14.92000008   1.03999996  51.32999802
C    16.28999901   1.24000001  51.26999664
C     6.43000031  -0.39000002  51.95000076
H     6.08833885   0.24349722  51.13143539
H    10.75000000   1.03999996  49.79000092
H    12.38000011  -0.56000000  54.23999786
H     9.96999931  -0.64000005  55.02999878
H     7.63999987  -1.13000000  54.27000046
H     8.43999958   0.73000002  50.52000046
H    16.70999908   1.72000003  50.40000153
H     6.28999996  -1.42000008  51.62000275
H     5.72000027  -0.41000003  52.78999710
S    17.79999924   0.28999999  54.73999786
C    20.43999863   0.88999999  54.02000046
C    19.10000038   0.94999999  53.73000336
C    18.56999969   1.36000013  52.45999908
C    19.51000023   1.72999990  51.51000214
C    20.88999939   1.81999993  51.84000015
C    21.83000183   2.34999990  50.90999985
C    23.18000031   2.36000013  51.18000031
C    23.68999863   1.90999997  52.43000031
C    22.80999947   1.39999998  53.34999847
C    21.40999985   1.38000000  53.09999847
C    17.17000008   1.00999999  52.34000397
C    16.54999924   0.45000002  53.48999786
C    15.19999981   0.13000000  53.55999756
C    25.10000038   2.22000003  52.84999847
H    25.46970749   1.65121984  53.70317078
H    20.75000000   0.19999999  54.79999924
H    19.19000053   1.88999999  50.48999786
H    21.38000107   2.54999995  49.93999863
H    23.78000069   2.89000010  50.44000244
H    23.16999817   0.97000003  54.29000092
H    14.88000011  -0.32000002  54.50000000
H    25.05000114   3.30999994  52.98999786
H    25.81999969   2.09000015  52.02999878
