96

S    17.48999977   5.32000017  57.84999847
C    20.13999939   5.32000017  57.21000290
C    18.86999893   4.99000025  56.79999924
C    18.47999954   4.72000027  55.45000076
C    19.54000092   4.50000000  54.58000183
C    20.88000107   4.67999983  55.00000000
C    21.98999786   4.61000013  54.12000275
C    23.29000092   4.86999989  54.50000000
C    23.59999847   5.42999983  55.76000214
C    22.55000114   5.55999994  56.63999939
C    21.22999954   5.13999987  56.31999969
C    17.02999878   4.65999985  55.30000305
C    16.38000107   5.05000019  56.49000168
C    15.03000069   4.77999973  56.72000122
C    24.96000099   6.03999996  56.00000000
H    25.46382904   5.45101547  56.76639175
H    20.34000015   5.78000021  58.18000031
H    19.31999969   4.26999998  53.54000092
H    21.77999878   4.41000032  53.06999969
H    24.09000015   4.67999983  53.77999878
H    22.65999985   6.05999994  57.60000229
H    14.56999969   5.00000000  57.68000031
H    25.53999901   6.09000015  55.06999969
H    24.90999985   7.04999971  56.43000031
S    13.81000042   4.11000013  52.98999786
C    11.10999966   4.28000021  53.61000061
C    12.41000080   4.44000006  54.02000046
C    12.79999924   4.69000006  55.38000107
C    11.77999973   4.88999987  56.29000092
C    10.44000053   4.67999983  55.90000153
C     9.35999966   4.92000008  56.79999924
C     8.05000019   4.69999981  56.46999741
C     7.65999985   4.15000010  55.21999741
C     8.67999935   4.07000017  54.29000092
C    10.06000042   4.32999992  54.55999756
C    14.22999954   4.55000019  55.59000015
C    14.91000080   4.41000032  54.34999847
C    16.28000069   4.23999977  54.20000076
C     6.24000025   3.75999975  54.87999725
H     5.74405384   4.38347530  54.13607788
H    10.85000038   3.76999998  52.69000244
H    12.10999966   5.21000004  57.28000259
H     9.63999939   5.12000036  57.83000183
H     7.28999996   4.75000000  57.23999786
H     8.36999989   3.88999987  53.27000046
H    16.73999977   3.84999990  53.29999924
H     5.69000006   3.67000008  55.81999969
H     6.24000025   2.72000027  54.54000092
S    17.72999954   5.88999987  51.98999786
C    20.42000008   6.11999989  51.31000137
C    19.12999916   5.86000013  50.90000153
C    18.78000069   5.45000029  49.56999969
C    19.80999947   5.32000017  48.67000198
C    21.15999985   5.55999994  49.03999710
C    22.25000000   5.44000053  48.13000107
C    23.54999924   5.69000006  48.47000122
C    23.88000107   5.98999977  49.81999969
C    22.85000038   6.17000008  50.70999908
C    21.47999954   5.93999958  50.38999939
C    17.32999992   5.31000042  49.43000031
C    16.62999916   5.64000034  50.61000061
C    15.24000072   5.73000002  50.61000061
C    25.28000069   6.34999990  50.25000000
H    25.74947548   5.60310745  50.89019012
H    20.65999985   6.34999990  52.34000397
H    19.51000023   5.01999950  47.65999603
H    21.84999847   5.09999990  47.16999817
H    24.25000000   5.72000027  47.63999939
H    23.08000183   6.63999987  51.66999817
H    14.70000076   6.07999992  51.47999573
H    25.90999985   6.32000017  49.36000061
H    25.38000107   7.36000013  50.68999863
S    14.06999969   4.50000000  47.09000015
C    11.38000011   4.23999977  47.88000107
C    12.61999989   4.77999973  48.08000183
C    12.97000027   5.42999983  49.31000137
C    12.00000000   5.65999985  50.26000214
C    10.65999985   5.23999977  50.06000137
C     9.57999992   5.56999969  50.91999817
C     8.27999973   5.22000027  50.65999985
C     8.01000023   4.55000019  49.43999863
C     9.02000046   4.17000008  48.57999802
C    10.36999893   4.53999996  48.82999802
C    14.42000008   5.46999979  49.50000000
C    15.17000008   5.05999994  48.36999893
C    16.54999924   4.97000027  48.31999969
C     6.57999992   4.19000006  49.09999847
H     6.11084461   4.82264900  48.34650803
H    11.18999958   3.55999994  47.04999924
H    12.22000027   6.24000025  51.14999771
H     9.82999992   6.17999983  51.79000092
H     7.55999994   5.42999983  51.44000244
H     8.82999992   3.68000007  47.63000107
H    17.02999878   4.69999981  47.37999725
H     6.06999969   4.26999998  50.06999969
H     6.53999996   3.17000008  48.72000122
