96

S    17.34000015   5.33999968  58.04999924
C    20.02000046   5.61999989  57.34000397
C    18.75000000   5.21000004  56.98999786
C    18.37000084   4.82999992  55.65999985
C    19.30999947   4.76000023  54.64000320
C    20.62999916   5.19000006  54.91000366
C    21.68000031   5.00999975  53.95999908
C    23.00000000   5.21000004  54.29999924
C    23.28000069   5.65000010  55.61999893
C    22.29000092   5.91000032  56.53999710
C    20.93000031   5.60999966  56.25000000
C    16.93000031   4.76999998  55.48999786
C    16.22999954   5.09000015  56.68000031
C    14.85000038   5.26999998  56.70999908
C    24.71999931   5.79999971  56.05999756
H    25.14786148   5.02984810  56.70179367
H    20.40999985   5.88999987  58.30999756
H    19.18000031   4.28000021  53.67000198
H    21.38999939   4.61000013  52.98999786
H    23.71000099   4.85000038  53.56999969
H    22.52000046   6.21000004  57.56000137
H    14.27999973   5.46000004  57.61000061
H    25.38000107   6.03999996  55.21999741
H    24.76000023   6.72999954  56.63000107
S    13.71000099   4.50000000  53.02000046
C    11.02000046   4.18000031  53.79000092
C    12.30000019   4.57999992  54.09000015
C    12.64999962   5.05999994  55.38999939
C    11.67000008   5.13000011  56.37000275
C    10.31999969   4.82999992  56.07999802
C     9.28999996   4.78999996  57.05999756
C     8.03999996   4.35999966  56.68000031
C     7.73000002   3.79999995  55.40999985
C     8.71000004   3.77999997  54.45000076
C    10.01000023   4.28000021  54.79000092
C    14.09999943   5.09000015  55.54000092
C    14.82999992   4.78999996  54.36999893
C    16.21000099   4.59999990  54.29999924
C     6.32000017   3.38000011  55.06999969
H     5.90739584   3.99890590  54.27324677
H    10.84000015   3.67000008  52.84999847
H    11.90999985   5.12000036  57.43000031
H     9.55999947   4.92999983  58.11000061
H     7.26000023   4.59999990  57.39999771
H     8.47999954   3.44000006  53.44999695
H    16.60000038   4.19999981  53.36999893
H     5.65999985   3.40000010  55.93999863
H     6.32999992   2.34999990  54.71000290
S    17.69000053   6.43000031  51.90000153
C    20.36999893   6.26999950  51.25000000
C    19.06999969   6.06999969  50.84000015
C    18.77000046   5.51999998  49.55999756
C    19.76000023   5.14999962  48.66000366
C    21.09999847   5.42000008  49.01000214
C    22.17000008   5.18000031  48.09999847
C    23.48999977   5.38000011  48.43999863
C    23.78999901   6.05999994  49.65000153
C    22.75000000   6.32999992  50.51000214
C    21.38000107   6.01000023  50.28999710
C    17.31999969   5.40000010  49.50000000
C    16.59000015   5.91000032  50.59999847
C    15.19999981   5.98000002  50.61000061
C    25.20999908   6.47000027  49.98000336
H    25.69336128   5.82314730  50.71215057
H    20.62999916   6.63999987  52.23999786
H    19.45999908   4.90999985  47.63999939
H    22.07999992   4.75000000  47.11000061
H    24.26000214   5.13999987  47.71999741
H    22.93999863   6.76999998  51.49000168
H    14.68000031   6.37000036  51.47999573
H    25.84000015   6.47000027  49.08000183
H    25.20999908   7.49000025  50.38000107
S    14.25000000   4.38000011  47.11999893
C    11.46999931   4.33999968  47.65999603
C    12.75000000   4.63999987  48.04000092
C    13.07999992   5.28999996  49.27999878
C    12.01000023   5.50000000  50.13000107
C    10.69000053   5.03999996  49.86999893
C     9.64999962   5.26000023  50.80999756
C     8.34999943   5.10999966  50.35999680
C     8.02999973   4.53000021  49.10999680
C     9.04999924   4.17000008  48.26000214
C    10.39000034   4.51999998  48.55999756
C    14.51000023   5.40999985  49.52999878
C    15.27999973   4.94999981  48.43999863
C    16.67000008   4.84000015  48.40000153
C     6.61999989   4.03999996  48.82999802
H     6.09414434   4.70797873  48.14781189
H    11.32999992   3.88000011  46.68000031
H    12.18999958   5.93999958  51.10000229
H     9.98999977   5.55999994  51.79000092
H     7.57000017   5.17000008  51.11000061
H     8.80999947   3.58000016  47.37999725
H    17.25000000   4.42999983  47.57999802
H     6.07999992   3.91000009  49.78000259
H     6.88000011   3.07000017  48.40000153
