96

S    17.26000023   5.28999996  58.33000183
C    19.90999985   5.75000000  57.61000061
C    18.63999939   5.38000011  57.22000122
C    18.31999969   4.88999987  55.91999817
C    19.34000015   4.72000027  55.00000000
C    20.65000153   5.12000036  55.34000015
C    21.68000031   5.00000000  54.36000061
C    22.93000031   5.50000000  54.61999893
C    23.29999924   5.96000004  55.91999817
C    22.29999924   6.01000023  56.86000061
C    20.94000053   5.65999985  56.63999939
C    16.88999939   4.67000008  55.72999954
C    16.21000099   4.94999981  56.95000076
C    14.81999969   4.94999981  56.93000031
C    24.72999954   6.28999996  56.29000092
H    25.20035744   5.62009764  57.00978851
H    20.06000137   6.19999981  58.59000397
H    19.10000038   4.26999998  54.03999710
H    21.32999802   4.46000004  53.48999786
H    23.71999931   5.42000008  53.88000107
H    22.53999901   6.32000017  57.87000275
H    14.26000023   5.12000036  57.84999847
H    25.35000038   6.30999994  55.38999939
H    24.89999962   7.27999973  56.75000000
S    13.73000050   4.07999992  53.16999817
C    11.02000046   4.02999973  53.74000168
C    12.30000019   4.21000004  54.22000122
C    12.68000031   4.44999981  55.58000183
C    11.63000011   4.61000013  56.45999908
C    10.29000092   4.44000006  56.04000092
C     9.31999969   4.44999981  57.09000015
C     8.01000023   4.15999985  56.79999924
C     7.67000008   3.70000005  55.50000000
C     8.64999962   3.56999993  54.54000092
C     9.98000050   4.05000019  54.69999695
C    14.11000061   4.69999981  55.75000000
C    14.80000019   4.48999977  54.52999878
C    16.18999863   4.46999979  54.54000092
C     6.30999994   3.09999990  55.22999573
H     5.83359432   3.66173244  54.42650604
H    10.77999973   3.71000004  52.72999573
H    11.75000000   4.94000006  57.49000168
H     9.70000076   4.71000004  58.06999969
H     7.20000029   4.21000004  57.52999878
H     8.46000004   3.02999997  53.61999893
H    16.70999908   4.25000000  53.61000061
H     5.61999989   3.05000019  56.07999802
H     6.37000036   2.06999993  54.86999893
S    17.76000023   6.15999985  51.86999893
C    20.45000076   6.26999950  51.17000198
C    19.15999985   5.92999983  50.81999969
C    18.79999924   5.36999989  49.54999924
C    19.82999992   5.13000011  48.66000366
C    21.17000198   5.46999979  48.95999908
C    22.25000000   5.32999992  48.04000092
C    23.52000046   5.73000002  48.36000061
C    23.81999969   6.32000017  49.61999893
C    22.80999947   6.50000000  50.52999878
C    21.47999954   6.11000013  50.20999908
C    17.35000038   5.26999998  49.43000031
C    16.62999916   5.75000000  50.56000137
C    15.25000000   5.82000017  50.59000015
C    25.25000000   6.61999989  50.02999878
H    25.62014008   6.02207851  50.86281586
H    20.76999855   6.65000010  52.14000320
H    19.61000061   4.63999987  47.71999741
H    22.01000023   5.09999990  47.00000000
H    24.23999977   5.53999996  47.56999969
H    22.98999977   6.93000031  51.51000214
H    14.75999928   6.11000013  51.52000046
H    25.86000061   6.52999973  49.12000275
H    25.26000023   7.67000008  50.34999847
S    14.07999992   4.26999998  47.11000061
C    11.39000034   4.32999992  47.88999939
C    12.71000004   4.59999990  48.18999863
C    13.04999924   5.32000017  49.36999893
C    12.03999996   5.69999981  50.24000168
C    10.72000027   5.23000002  50.06000137
C     9.70000076   5.35000038  51.04999924
C     8.46000004   4.80999994  50.86000061
C     8.14000034   4.09000015  49.66999817
C     9.04999924   4.05999994  48.63999939
C    10.36999893   4.57999992  48.82999802
C    14.50000000   5.40999985  49.47999954
C    15.19000053   4.84000015  48.36999893
C    16.56999969   4.72000027  48.40000153
C     6.70000029   3.63999987  49.52000046
H     6.22394943   4.42868042  48.93737030
H    11.13000011   3.98000002  46.88999939
H    12.39999962   6.26999950  51.10000229
H     9.94999981   5.86000013  51.97999954
H     7.63999987   5.05999994  51.52000046
H     8.82999992   3.58999991  47.69000244
H    17.02000046   4.30000019  47.50999832
H     6.12999964   3.42000008  50.41999817
H     6.72999954   2.72000027  48.92000198
