96

S    17.04000092   5.60999966  58.06000137
C    19.75000000   5.86999989  57.25000000
C    18.46999931   5.42999983  57.02000046
C    18.12999916   4.92000008  55.72999954
C    19.11999893   4.76999998  54.77000427
C    20.43000031   5.25000000  55.00999832
C    21.54000092   5.15999985  54.12000275
C    22.80999947   5.59000015  54.38999939
C    23.09999847   6.10000038  55.68999863
C    22.11000061   6.21999979  56.63000107
C    20.79000092   5.79999971  56.29000092
C    16.69000053   4.77999973  55.56000137
C    15.95999908   5.13999987  56.72999954
C    14.57999992   5.31000042  56.76000214
C    24.53000069   6.44999981  56.00999832
H    24.96330833   5.76807165  56.74165344
H    19.90999985   6.39999962  58.18999863
H    18.85000038   4.48000002  53.75999832
H    21.31000137   4.69000006  53.15999985
H    23.69999886   5.28999996  53.82999802
H    22.22999954   6.57000017  57.64999771
H    14.09000015   5.64000034  57.67000198
H    25.10000038   6.48000002  55.06999969
H    24.57999992   7.50000000  56.33999634
S    13.55000019   4.15000010  53.11999893
C    10.77999973   3.88999987  53.81000137
C    12.06999969   4.28000021  54.09000015
C    12.43999958   4.77999973  55.38000107
C    11.44000053   4.98000002  56.31000137
C    10.06999969   4.75000000  56.00999832
C     9.00000000   5.00000000  56.91999817
C     7.73000002   4.61000013  56.58000183
C     7.44000006   4.07999992  55.30000305
C     8.42000008   3.79999995  54.38000107
C     9.76000023   4.15000010  54.75000000
C    13.86999989   4.92000008  55.61000061
C    14.60999966   4.69999981  54.41999817
C    16.00000000   4.57999992  54.36000061
C     6.03999996   3.61999989  54.93999863
H     5.61986113   4.20392179  54.12108612
H    10.50000000   3.65999985  52.77999878
H    11.69999981   5.29999971  57.30999756
H     9.30000019   5.38000011  57.88999939
H     6.90999985   4.73000002  57.29000092
H     8.34000015   3.22000003  53.47000122
H    16.54999924   4.39000034  53.44999695
H     5.42000008   3.81000018  55.83000183
H     6.06999969   2.54999995  54.68000031
S    17.43999863   6.21000004  51.84000015
C    20.17000008   6.32999992  51.17000198
C    18.89000130   5.92000008  50.86000061
C    18.47999954   5.46999979  49.56999969
C    19.52000046   5.21000004  48.68999863
C    20.85000038   5.59999990  48.97999573
C    21.93000031   5.65999985  48.06999969
C    23.22000122   6.09000015  48.29000092
C    23.59000015   6.48000002  49.61000061
C    22.57999802   6.51000023  50.54999924
C    21.22999954   6.17999983  50.25000000
C    17.04000092   5.51000023  49.31999969
C    16.32999992   5.84999990  50.50000000
C    14.93999958   5.82999992  50.59999847
C    25.00000000   6.94000006  49.87999725
H    25.54190063   6.16993141  50.42903137
H    20.40999985   6.74000025  52.15000153
H    19.23999977   4.80999994  47.71999741
H    21.71999931   5.40000010  47.02999878
H    23.88999939   6.30999994  47.45999908
H    22.67999840   6.93000031  51.55000305
H    14.40999985   5.96000004  51.53999710
H    25.63999939   7.03999996  49.00000000
H    25.00000000   7.79999971  50.56999969
S    13.88000011   4.40000010  47.04000092
C    11.18000031   4.18000031  47.83000183
C    12.46000099   4.59999990  48.09000015
C    12.79000092   5.10999966  49.38999939
C    11.72999954   5.26000023  50.26000214
C    10.39000034   4.86000013  50.06000137
C     9.30999947   5.07000017  50.97000122
C     8.02999973   4.73000002  50.59000015
C     7.75000000   4.32000017  49.26000214
C     8.76999950   4.11999989  48.34999847
C    10.11000061   4.30999994  48.75999832
C    14.22000027   5.36000013  49.48999786
C    14.94999981   4.99000025  48.33000183
C    16.32999992   5.03999996  48.20999908
C     6.30999994   4.05999994  48.88000107
H     5.86917543   4.65013599  48.07656097
H    10.98000050   3.91000009  46.79000092
H    11.92999935   5.55999994  51.27999878
H     9.56999969   5.46999979  51.93999863
H     7.21000004   4.90999985  51.27999878
H     8.46000004   3.79999995  47.35000229
H    16.72000122   4.65999985  47.27000427
H     5.75999975   4.23999977  49.80999756
H     6.21000004   2.98000002  48.72000122
