96

S    17.13000107   5.38000011  57.91999817
C    19.71999931   5.92999983  57.09999847
C    18.47999954   5.42999983  56.77000046
C    18.13999939   4.84000015  55.51000214
C    19.15999985   4.75000000  54.56999969
C    20.48999977   5.03999996  54.93000031
C    21.56999969   4.69999981  54.05000305
C    22.86999893   5.03999996  54.31999969
C    23.09000015   5.88000011  55.44000244
C    22.10000038   6.19999981  56.33999634
C    20.75000000   5.78000021  56.13999939
C    16.72000122   4.51999998  55.40999985
C    16.05999947   4.78999996  56.63999939
C    14.67000008   4.81999969  56.73999786
C    24.54000092   6.19000006  55.75000000
H    24.98744011   5.55790281  56.51704025
H    19.93000031   6.47000027  58.02000046
H    18.95000076   4.28000021  53.61999893
H    21.24000168   4.32000017  53.09000015
H    23.69999886   4.63000011  53.75000000
H    22.17000008   6.71000004  57.29000092
H    14.04999924   5.22000027  57.52999878
H    25.10000038   6.09000015  54.80999756
H    24.72999954   7.23000002  56.04000092
S    13.45000076   3.65000010  53.11000061
C    10.81999969   3.38999987  54.01000214
C    12.10000038   3.84000015  54.23999786
C    12.53000069   4.32999992  55.51000214
C    11.59000015   4.48000002  56.51000214
C    10.22999954   4.15999985  56.27999878
C     9.26000023   4.36999989  57.29999924
C     7.96000004   3.96000004  57.15000153
C     7.55999994   3.48000002  55.86999893
C     8.45000076   3.33999991  54.82999802
C     9.82999992   3.65999985  54.99000168
C    13.97999954   4.48000002  55.56999969
C    14.61999989   4.13000011  54.34999847
C    16.01000023   4.18000031  54.26000214
C     6.11000013   3.10999990  55.65999985
H     5.78225946   3.53748798  54.71240234
H    10.55999947   3.03999996  53.01000214
H    11.75000000   4.88000011  57.50999832
H     9.64999962   4.74000025  58.25000000
H     7.21000004   4.07000017  57.93000031
H     8.13000011   2.94000006  53.88000107
H    16.47999954   4.11999989  53.29000092
H     5.49000025   3.52999973  56.45999908
H     5.98999977   2.02999997  55.77999878
S    13.81999969   1.71000004  50.22999573
C    11.14999962   1.16999996  50.87999725
C    12.48999977   1.04999995  51.19999695
C    12.89999962   0.48000002  52.43999863
C    11.98999977  -0.07000000  53.31999969
C    10.60999966   0.00000000  53.02000046
C     9.59000015  -0.56000000  53.83999634
C     8.26000023  -0.37000000  53.56999969
C     7.88000011   0.14999999  52.29999924
C     8.84000015   0.56999999  51.40999603
C    10.21000004   0.56999999  51.76000214
C    14.34000015   0.62000000  52.57999802
C    14.96000099   1.36999989  51.53999710
C    16.28000069   1.81999993  51.52999878
C     6.42000008   0.48000002  52.09999847
H     5.98610926   0.11723918  51.16820145
H    10.88999939   1.80000007  50.02999878
H    12.38999939  -0.44000000  54.26000214
H     9.89000034  -1.00999999  54.78000259
H     7.59000015  -0.39999998  54.41999817
H     8.57999992   1.24000001  50.59000015
H    16.72000122   2.27999997  50.65000153
H     5.80999947   0.06000000  52.91999817
H     6.23000050   1.56000006  52.11000061
S    17.70000076   0.31000000  54.91000366
C    20.30999947   1.15999997  54.40999985
C    19.01000023   1.07000005  53.97999573
C    18.51000023   1.67999995  52.77999878
C    19.43000031   2.13000011  51.84000015
C    20.79999924   2.10999990  52.18000031
C    21.80000114   2.56000018  51.27999878
C    23.13999939   2.43000007  51.52000046
C    23.57999992   1.92000008  52.77000046
C    22.63999939   1.58000004  53.72000122
C    21.24000168   1.67999995  53.48999786
C    17.06999969   1.57000005  52.65999603
C    16.51000023   0.74000001  53.66000366
C    15.21999931   0.22000000  53.59000397
C    25.05000114   1.63000000  52.97999954
H    25.48307991   2.06307936  53.88165665
H    20.65000153   0.71000004  55.34999847
H    19.12999916   2.50999975  50.86999893
H    21.38000107   3.00000000  50.38000107
H    23.80000114   2.63999987  50.68000031
H    23.05000114   1.05999994  54.59000015
H    14.89999962  -0.50999999  54.31999969
H    25.61000061   2.05999994  52.14000320
H    25.17999840   0.54000002  52.87000275
