96

S    17.20000076   5.47999954  57.77999878
C    19.90999985   5.46999979  57.11999893
C    18.63000107   5.09000015  56.81000137
C    18.25000000   4.51000023  55.54999924
C    19.27999878   4.28000021  54.65999985
C    20.63999939   4.50000000  55.00000000
C    21.73999977   4.23999977  54.13000107
C    23.02999878   4.59000015  54.41999817
C    23.32999992   5.18000031  55.68000031
C    22.32999992   5.42000008  56.59000015
C    20.97999954   5.13000011  56.24000168
C    16.80999947   4.50000000  55.38000107
C    16.07999992   4.97000027  56.50000000
C    14.70000076   5.05999994  56.56000137
C    24.70999908   5.59999990  56.11999893
H    25.15133095   4.88817453  56.81758881
H    20.03999901   6.07999992  58.01000214
H    19.06999969   3.86000013  53.68000031
H    21.50000000   3.89999986  53.13000107
H    23.84000015   4.38000011  53.73000336
H    22.53999901   5.82999992  57.56999969
H    14.22999954   5.50000000  57.43000031
H    25.35000038   5.69000006  55.22999573
H    24.60000038   6.58999968  56.59000015
S    13.47000027   3.63999987  53.06000137
C    10.78999996   3.79999995  53.66000366
C    12.06999969   4.13000011  54.02999878
C    12.46000099   4.61000013  55.31999969
C    11.39999962   4.96000004  56.12999725
C    10.05000019   4.67000008  55.83000183
C     9.00000000   4.92000008  56.76000214
C     7.76000023   4.39000034  56.52000046
C     7.46999979   3.68999982  55.31999969
C     8.43999958   3.52999973  54.34999847
C     9.77000046   3.91000009  54.64000320
C    13.90999985   4.57999992  55.51000214
C    14.57999992   4.00999975  54.38999939
C    15.97000027   4.07000017  54.34000015
C     6.01999998   3.30999994  55.13000107
H     5.56427670   3.95086145  54.37520599
H    10.70000076   3.32999992  52.68000031
H    11.61000061   5.31000042  57.14000320
H     9.26000023   5.21000004  57.77999878
H     7.02000046   4.36999989  57.30999756
H     8.26000023   2.98000002  53.41999817
H    16.51000023   3.65999985  53.50000000
H     5.46999979   3.12000012  56.05999756
H     6.00000000   2.27999997  54.75999832
S    17.88999939   5.75999975  52.02999878
C    20.58000183   5.72000027  51.40999603
C    19.30999947   5.32000017  51.05999756
C    18.94000053   4.77999973  49.79999924
C    19.95000076   4.61000013  48.87000275
C    21.28999901   4.97000027  49.12000275
C    22.29999924   4.88999987  48.11999893
C    23.59000015   5.25000000  48.40000153
C    23.95000076   5.73000002  49.68000031
C    22.96999931   5.77000046  50.63999939
C    21.59000015   5.49000025  50.43000031
C    17.48999977   4.88000011  49.62999725
C    16.73999977   5.40000010  50.72000122
C    15.36000061   5.52999973  50.72999954
C    25.38000107   6.14000034  49.95999908
H    25.82223892   5.65496492  50.83021164
H    20.85000038   6.38000011  52.22999954
H    19.71999931   4.39000034  47.83000183
H    21.94999886   4.51000023  47.15999985
H    24.37000084   5.17000008  47.63999939
H    23.29999924   6.14000034  51.60999680
H    14.88999939   6.02999973  51.56999969
H    26.01000023   5.92000008  49.08000183
H    25.46999931   7.23999977  50.00999832
S    14.22999954   4.07999992  47.28000259
C    11.50000000   4.19000006  47.85999680
C    12.79000092   4.44999981  48.25000000
C    13.15000057   5.07999992  49.48999786
C    12.11999989   5.36999989  50.37000275
C    10.80999947   4.92999983  50.06999969
C     9.76000023   5.05999994  51.02000427
C     8.47999954   4.59999990  50.77999878
C     8.14000034   4.09999990  49.50000000
C     9.11000061   3.98999977  48.53000259
C    10.44999981   4.39000034  48.79000092
C    14.59000015   5.09999990  49.64000320
C    15.34999943   4.55999994  48.56999969
C    16.73999977   4.48000002  48.52000427
C     6.72999954   3.68999982  49.15000153
H     6.31739664   4.30890465  48.35324860
H    11.32999992   3.67000008  46.91999817
H    12.34000015   5.65999985  51.39999771
H     9.94000053   5.59999990  51.93999863
H     7.76999998   4.92000008  51.53999710
H     8.89000034   3.68000007  47.50000000
H    17.36999893   4.11999989  47.70999908
H     6.07999992   3.84999990  50.00999832
H     6.65000010   2.66000009  48.75999832
