96

S    17.28000069   5.40999985  57.88000107
C    20.02000046   5.22000027  57.37999725
C    18.72999954   5.14999962  56.88999939
C    18.40999985   4.76000023  55.54999924
C    19.45000076   4.40000010  54.72000122
C    20.79000092   4.65000010  55.10000229
C    21.86000061   4.44000006  54.19000244
C    23.13999939   4.76000023  54.58000183
C    23.36999893   5.33999968  55.86000061
C    22.36999893   5.56999969  56.77999878
C    21.04999924   5.18000031  56.40999603
C    16.97000122   4.65999985  55.34999847
C    16.23999977   5.15999985  56.45999908
C    14.86999989   5.40000010  56.43000031
C    24.82000160   5.68000031  56.13999939
H    25.22669601   5.10919857  56.97479630
H    20.15999985   5.45000029  58.43000031
H    19.22000122   4.01999998  53.73000336
H    21.64999962   4.01999998  53.20999908
H    23.88999939   4.88000011  53.81000137
H    22.63000107   6.00000000  57.74000168
H    14.52000046   6.00000000  57.25999832
H    25.38999939   5.68000031  55.20000076
H    24.89000130   6.74000025  56.43000031
S    13.73000050   3.74000025  53.06000137
C    11.00000000   3.55999994  53.81000137
C    12.28000069   4.00999975  54.03999710
C    12.64999962   4.59999990  55.28999710
C    11.68000031   4.80999994  56.25000000
C    10.36999893   4.33999968  56.04000092
C     9.27999973   4.55999994  56.93000031
C     7.99000025   4.21999979  56.59999847
C     7.63000011   3.61000013  55.37000275
C     8.64999962   3.40000010  54.47000122
C    10.00000000   3.70000005  54.79999924
C    14.09000015   4.84000015  55.41999817
C    14.82999992   4.28999996  54.34000015
C    16.21999931   4.21999979  54.26000214
C     6.19000006   3.25999999  55.04000092
H     5.74886560   3.82920504  54.22176743
H    10.80999947   3.22000003  52.80000305
H    12.02999973   5.21000004  57.19999695
H     9.39000034   4.96000004  57.94000244
H     7.20000029   4.42999983  57.31999969
H     8.40999985   3.05000019  53.47000122
H    16.70999908   3.79999995  53.39000320
H     5.55000019   3.28000021  55.93000031
H     6.19999981   2.20000005  54.77000427
S    17.69000053   6.01000023  52.09000015
C    20.38000107   5.84000015  51.43000031
C    19.09000015   5.50000000  51.11999893
C    18.71999931   4.92000008  49.86999893
C    19.70000076   4.78999996  48.89999771
C    21.05999947   5.05000019  49.15000153
C    22.09000015   4.86000013  48.18999863
C    23.36000061   5.29999971  48.50000000
C    23.68000031   5.91000032  49.73999786
C    22.69000053   6.09000015  50.68000031
C    21.35000038   5.69000006  50.40999985
C    17.27000046   4.90000010  49.69999695
C    16.59000015   5.45000029  50.81999969
C    15.21999931   5.68000031  50.72000122
C    25.09000015   6.34000015  50.06999969
H    25.51552773   5.70880032  50.85013580
H    20.69000053   6.34999990  52.34000397
H    19.45000076   4.32000017  47.95000076
H    21.86000061   4.48999977  47.18999863
H    24.05999947   5.25000000  47.67000198
H    22.86000061   6.48999977  51.68000031
H    14.73000050   6.07999992  51.59999847
H    25.69000053   6.25000000  49.15999985
H    24.96000099   7.40000010  50.31999969
S    14.22000027   4.15000010  47.18000031
C    11.50000000   4.07999992  47.71999741
C    12.75000000   4.46000004  48.11999893
C    13.05999947   5.07000017  49.38000107
C    12.00000000   5.26999998  50.25000000
C    10.70000076   4.84000015  49.87999725
C     9.68999958   4.85000038  50.87999725
C     8.45000076   4.33999968  50.58000183
C     8.14999962   3.77999997  49.31999969
C     9.06999969   3.84999990  48.29999924
C    10.40999985   4.19999981  48.61999893
C    14.48999977   5.17000008  49.64000320
C    15.21999931   4.61999989  48.55999756
C    16.60000038   4.42999983  48.55999756
C     6.74000025   3.25000000  49.15000153
H     6.29705048   3.84298062  48.34983444
H    11.33999920   3.63999987  46.73999786
H    12.20000076   5.59000015  51.26999664
H     9.71000004   5.35000038  51.84999847
H     7.72000027   4.48000002  51.38000107
H     8.86999989   3.54999995  47.27000427
H    17.15999985   4.13999987  47.68000031
H     6.17999983   3.45000005  50.06999969
H     6.93000031   2.22000003  48.81000137
