96

S    17.27000046   5.07000017  57.76000214
C    20.00000000   5.19000006  57.12999725
C    18.75000000   4.67999983  56.86000061
C    18.35000038   4.19999981  55.56999969
C    19.34000015   4.28999996  54.61000061
C    20.66999817   4.63000011  54.93000031
C    21.73000145   4.61999989  53.96999741
C    23.02999878   4.94999981  54.25000000
C    23.36000061   5.51000023  55.51000214
C    22.37999916   5.66999960  56.45999908
C    21.07999992   5.13999987  56.20999908
C    16.92000008   4.15999985  55.31999969
C    16.20000076   4.77999973  56.38000107
C    14.82999992   5.01999950  56.37000275
C    24.77999878   5.92999983  55.84000015
H    25.17885208   5.16790771  56.50950241
H    20.20000076   5.69999981  58.06000137
H    19.00000000   3.94000006  53.63999939
H    21.63000107   4.23999977  52.95999908
H    23.78000069   4.94000006  53.46000290
H    22.56999969   6.07999992  57.44999695
H    14.22000027   5.47999954  57.14000320
H    25.45999908   6.15000010  55.00999832
H    24.76000023   6.89000034  56.37000275
S    13.78000069   3.48000002  52.81000137
C    11.09000015   3.17999983  53.56999969
C    12.35999966   3.58999991  53.88000107
C    12.74000072   4.26999998  55.07999802
C    11.69999981   4.53999996  55.96000290
C    10.36999893   4.11000013  55.72999954
C     9.34000015   4.46999979  56.65000153
C     8.02999973   4.13000011  56.40999603
C     7.73000002   3.35999990  55.26000214
C     8.67999935   3.09999990  54.29999924
C    10.03999901   3.45999980  54.48999786
C    14.15999985   4.51000023  55.26000214
C    14.85000038   4.00999975  54.13000107
C    16.21999931   3.75000000  54.18000031
C     6.38999987   2.68000007  55.08999634
H     5.75714779   3.17063856  54.35048676
H    10.90999985   2.50000000  52.74000168
H    11.97000027   5.05999994  56.88000107
H     9.57999992   5.10999966  57.49000168
H     7.22000027   4.25000000  57.12999725
H     8.38999939   2.40999985  53.50999832
H    16.68000031   3.37000012  53.27000046
H     5.88000011   2.63000011  56.05999756
H     6.65000010   1.69000006  54.66999817
S    17.61999893   5.40999985  51.81999969
C    20.29999924   5.56999969  51.06999969
C    19.04000092   5.07999992  50.80999756
C    18.71999931   4.56999969  49.51000214
C    19.75000000   4.53999996  48.60000229
C    21.05999947   5.05000019  48.77999878
C    22.09000015   4.98000002  47.81000137
C    23.31999969   5.47999954  48.15000153
C    23.61000061   6.03999996  49.41999817
C    22.60999870   6.12999964  50.35999680
C    21.31999969   5.59999990  50.08999634
C    17.27000046   4.44999981  49.43000031
C    16.51000023   4.99000025  50.50000000
C    15.14000034   5.18000031  50.54000092
C    24.96999931   6.56000042  49.85000229
H    25.47781754   5.77324200  50.40788269
H    20.45999908   6.00000000  52.05999756
H    19.55999947   4.13999987  47.60000229
H    21.91999817   4.44000006  46.86999893
H    24.21999931   5.23000002  47.58999634
H    22.77000046   6.65999985  51.30000305
H    14.65999985   5.40999985  51.49000168
H    25.56999969   6.91999960  49.00000000
H    24.82000160   7.44999981  50.47000122
S    14.09999943   3.65000010  47.02000046
C    11.38000011   3.53999996  47.74000168
C    12.67000008   3.91000009  48.04999924
C    13.02000046   4.55999994  49.27000046
C    12.02000046   4.74000025  50.20000076
C    10.67000008   4.40000010  49.93999863
C     9.68999958   4.67000008  50.93999863
C     8.38999939   4.28999996  50.70999908
C     8.03999996   3.63999987  49.50000000
C     9.01000023   3.30999994  48.57999802
C    10.36000061   3.74000025  48.69999695
C    14.45000076   4.82999992  49.36999893
C    15.17000008   4.35999966  48.25000000
C    16.54999924   4.15999985  48.26000214
C     6.63999987   3.10999990  49.27999878
H     6.04743814   3.78823280  48.66601944
H    11.16000080   3.28000021  46.70000076
H    12.36999989   5.05000019  51.18999863
H    10.06999969   5.10999966  51.86000061
H     7.75000000   4.13000011  51.58000183
H     8.84000015   2.73999977  47.67000198
H    16.97000122   3.79999995  47.32999802
H     6.19000006   3.01999998  50.27999878
H     6.76999998   2.11999989  48.82999802
