96

S    17.27000046   5.21000004  58.37999725
C    19.98999977   5.27999973  57.64999771
C    18.68000031   5.00000000  57.31999969
C    18.27000046   4.63000011  56.00000000
C    19.26000023   4.55000019  55.04000092
C    20.61000061   4.86000013  55.31000137
C    21.57999992   5.03000021  54.27999878
C    22.84000015   5.55000019  54.47999954
C    23.22000122   5.88999987  55.79999924
C    22.30999947   5.73000002  56.81999969
C    20.98999977   5.22000027  56.65000153
C    16.82999992   4.65000010  55.80999756
C    16.14999962   4.92000008  57.02999878
C    14.75999928   4.88000011  57.15000153
C    24.56000137   6.48999977  56.17000198
H    24.99463272   5.98411655  57.03213882
H    20.26000023   5.75999975  58.59000397
H    18.96999931   4.44999981  54.00000000
H    21.14000130   5.00000000  53.29000092
H    23.42000008   5.61999989  53.55999756
H    22.50000000   5.97000027  57.85999680
H    14.29999924   5.19000006  58.08000183
H    25.25000000   6.44000006  55.31999969
H    24.38999939   7.55000019  56.37000275
S    13.55999947   4.15999985  53.39000320
C    10.90999985   3.63000011  54.13000107
C    12.15999985   4.09999990  54.47000122
C    12.58999920   4.39000034  55.80999756
C    11.64999962   4.46000004  56.81999969
C    10.32999992   4.05000019  56.52000046
C     9.26999950   4.11000013  57.45999908
C     7.96999979   3.82999992  57.11999893
C     7.68000031   3.19000006  55.89000320
C     8.65999985   3.14000010  54.92000198
C     9.96999931   3.63000011  55.19000244
C    14.01999950   4.57999992  56.00000000
C    14.67000008   4.44999981  54.75000000
C    16.04999924   4.42999983  54.65999985
C     6.30999994   2.68000007  55.52000046
H     5.81614828   3.36709809  54.83290100
H    10.65000057   3.33999991  53.11999893
H    11.95000076   4.72000027  57.84000015
H     9.40999985   4.55999994  58.44999695
H     7.17000008   4.00000000  57.84000015
H     8.52000046   2.70000005  53.93000031
H    16.46000099   4.26000023  53.67000198
H     5.78999996   2.63000011  56.49000168
H     6.44999981   1.69000006  55.06000137
S    13.90999985   2.17999983  50.35999680
C    11.30000019   1.51999998  51.11000061
C    12.64999962   1.30999994  51.25000000
C    13.15999985   0.56000000  52.36000061
C    12.30000019  -0.05000000  53.26000214
C    10.90000057   0.13000000  53.18999863
C     9.92999935  -0.41000003  54.09000015
C     8.59000015  -0.32000002  53.77999878
C     8.14000034   0.41000003  52.63999939
C     9.04999924   0.97999996  51.77999878
C    10.44000053   0.88000000  52.04999924
C    14.60000038   0.74000001  52.41000366
C    15.19000053   1.59999990  51.44000244
C    16.51000023   2.02999997  51.43000031
C     6.67000008   0.59000003  52.35000229
H     6.30616951   0.14769644  51.42258835
H    10.90999985   2.05999994  50.25000000
H    12.72999954  -0.48000002  54.15999985
H    10.38000011  -1.02999997  54.85000229
H     7.86999989  -0.64000005  54.52999878
H     8.76000023   1.56000006  50.90999985
H    16.79000092   2.66999984  50.59999847
H     6.12999964   0.14000000  53.18999863
H     6.38000011   1.65000010  52.37999725
S    17.92000008   0.44000000  54.79000092
C    20.52999878   1.21000004  54.22999954
C    19.19000053   1.31999993  53.93000031
C    18.70000076   1.92000008  52.72999573
C    19.64999962   2.50999975  51.90999985
C    21.02000046   2.52999997  52.22999954
C    21.98999786   3.00000000  51.30000305
C    23.31999969   2.89999986  51.65000153
C    23.80000114   2.23000002  52.80000305
C    22.86999893   1.65999997  53.64999771
C    21.47999954   1.89999998  53.43999863
C    17.29999924   1.59999990  52.50999832
C    16.72999954   0.78000003  53.52000427
C    15.43000031   0.31000000  53.44999695
C    25.25000000   1.87999988  53.01000214
H    25.66992378   2.32127619  53.91390228
H    20.86000061   0.56999999  55.05000305
H    19.37000084   2.87999988  50.91999817
H    21.80000114   3.44000006  50.31999969
H    24.07999992   3.23000002  50.94999695
H    23.26000023   1.02999997  54.43999863
H    15.00000000  -0.05000000  54.38000107
H    25.86000061   2.09999990  52.11999893
H    25.36000061   0.79000002  53.02999878
