96

S    17.11000061   5.65000010  57.81999969
C    19.85000038   5.55000019  57.16999817
C    18.54999924   5.25000000  56.84999847
C    18.23999977   4.63999987  55.59999847
C    19.26000023   4.39000034  54.69999695
C    20.62000084   4.71000004  54.94999695
C    21.61999893   4.57999992  53.95000076
C    22.86999893   5.07000017  54.22000122
C    23.19000053   5.59999990  55.50000000
C    22.22999954   5.66999960  56.47999573
C    20.88999939   5.25000000  56.25999832
C    16.79999924   4.57999992  55.40000153
C    16.05999947   5.07000017  56.51000214
C    14.68000031   5.15999985  56.52999878
C    24.57999992   6.14000034  55.77000046
H    25.05661774   5.54956245  56.55250931
H    19.98999977   6.19000006  58.04000092
H    19.04999924   3.86000013  53.76999664
H    21.42000008   4.23999977  52.93000031
H    23.64000130   4.90000010  53.47000122
H    22.44999886   6.11999989  57.44999695
H    14.14999962   5.32999992  57.45999908
H    25.15000153   6.26999950  54.84000397
H    24.40999985   7.17000008  56.10000229
S    13.64999962   3.84999990  52.91999817
C    10.90999985   3.97000027  53.47000122
C    12.20000076   4.15999985  53.89999771
C    12.51000023   4.61000013  55.21999741
C    11.44999981   4.69999981  56.10000229
C    10.11000061   4.35999966  55.77000046
C     9.02000046   4.42999983  56.66999817
C     7.77999973   3.96000004  56.31000137
C     7.57000017   3.51999998  54.97000122
C     8.59000015   3.38000011  54.06000137
C     9.86999989   3.88999987  54.43000031
C    13.94000053   4.80999994  55.38999939
C    14.68999958   4.40000010  54.26000214
C    16.06999969   4.26999998  54.25000000
C     6.15999985   3.10999990  54.59000015
H     5.66786289   3.73052025  53.84109879
H    10.73999977   3.63000011  52.44999695
H    11.69999981   4.85000038  57.15000153
H     9.19000053   4.84000015  57.67000198
H     7.02000046   3.96000004  57.08000183
H     8.52000046   3.10999990  53.01000214
H    16.56999969   4.00000000  53.31999969
H     5.61999989   3.10999990  55.54999924
H     6.12999964   2.06999993  54.22999954
S    13.85000038   1.66999996  50.00000000
C    11.14999962   1.23000002  50.54999924
C    12.46999931   0.97999996  50.87999725
C    12.88000011   0.39000002  52.11000061
C    11.87000084   0.11000000  53.02000046
C    10.50000000   0.25000000  52.68000031
C     9.44999981  -0.17000002  53.53000259
C     8.11999989   0.04000000  53.20999908
C     7.73999977   0.69000000  52.01000214
C     8.73000050   1.10000002  51.14999771
C    10.11000061   0.88000000  51.45000076
C    14.30999947   0.52999997  52.30999756
C    15.01000023   1.01999998  51.17000198
C    16.36000061   1.34000003  51.14999771
C     6.30000019   0.71000004  51.55000305
H     5.86524868  -0.25215513  51.27917480
H    10.95000076   1.65000010  49.56999969
H    12.18999958  -0.23000000  54.00000000
H     9.59000015  -0.55000001  54.54000092
H     7.28999996  -0.39000002  53.76999664
H     8.40999985   1.30999994  50.13000107
H    16.90000153   1.72000003  50.28999710
H     5.68000031   1.00000000  52.41000366
H     6.25999975   1.43999994  50.72999954
S    17.60000038   0.20999999  54.71000290
C    20.28000069   0.92000002  54.22999954
C    18.96000099   0.92000002  53.81999969
C    18.53000069   1.34000003  52.51999664
C    19.48999977   1.75000000  51.60999680
C    20.86000061   1.81999993  51.95999908
C    21.84000015   2.29999995  51.04999924
C    23.18000031   2.27999997  51.36000061
C    23.54999924   1.65000010  52.57999802
C    22.62000084   1.39999998  53.55999756
C    21.22999954   1.35000002  53.26000214
C    17.10000038   1.13999999  52.31999969
C    16.44000053   0.51999998  53.40999985
C    15.08999920   0.19999999  53.43000031
C    25.02000046   1.43999994  52.85999680
H    25.46941948   1.84661615  53.76596832
H    20.59999847   0.28999999  55.06000137
H    19.14999962   1.98000002  50.61000061
H    21.47999954   2.61999989  50.06999969
H    23.88000107   2.72000027  50.65000153
H    23.09999847   1.21000004  54.52000046
H    14.63999939  -0.19999999  54.33000183
H    25.61000061   1.92000008  52.06999969
H    25.15000153   0.34999999  52.88000107
