96

S    17.22999954   5.44000053  58.04999924
C    19.93999863   5.51000023  57.29999924
C    18.63999939   5.15999985  57.01000214
C    18.26000023   4.65000010  55.72999954
C    19.27000046   4.44999981  54.80999756
C    20.62000084   4.82999992  55.02999878
C    21.68999863   4.59999990  54.12000275
C    23.01000214   4.84000015  54.38000107
C    23.31000137   5.49000025  55.61000061
C    22.32999992   5.59999990  56.56999969
C    20.96999931   5.23999977  56.36000061
C    16.81999969   4.51000023  55.56000137
C    16.14999962   4.90999985  56.73999786
C    14.75999928   4.97000027  56.81000137
C    24.71999931   5.91000032  55.93999863
H    25.18839836   5.14353085  56.55743408
H    20.13000107   5.80999947  58.33000183
H    19.09000015   3.86000013  53.90999603
H    21.47000122   4.23000002  53.11999893
H    23.81000137   4.63000011  53.67000198
H    22.60999870   6.05000019  57.50999832
H    14.23999977   5.17000008  57.74000168
H    25.31999969   6.17000008  55.06000137
H    24.51999855   6.84999990  56.46999741
S    13.67000008   3.86000013  53.13000107
C    10.93999958   3.93000007  53.75000000
C    12.23999977   4.15999985  54.13999939
C    12.60000038   4.48000002  55.48999786
C    11.59999943   4.46999979  56.44000244
C    10.24000072   4.21000004  56.12999725
C     9.21000004   4.26000023  57.11000061
C     7.92999983   4.00000000  56.68000031
C     7.62000036   3.58000016  55.35999680
C     8.59000015   3.61000013  54.38999939
C     9.92999935   3.91000009  54.75000000
C    14.04000092   4.65999985  55.65000153
C    14.73999977   4.26999998  54.47999954
C    16.10999870   4.02999973  54.45000076
C     6.15999985   3.31999993  55.05000305
H     5.77592659   3.86766028  54.18938828
H    10.76000023   3.54999995  52.75000000
H    11.82000065   4.78999996  57.44999695
H     9.50000000   4.25000000  58.15999985
H     7.16000032   4.02999973  57.43999863
H     8.34000015   3.42999983  53.34999847
H    16.65999985   3.74000025  53.55999756
H     5.60999966   3.48000002  55.98999786
H     6.07999992   2.28999996  54.71000290
S    17.79000092   5.78000021  51.86000061
C    20.52999878   5.80999947  51.23000336
C    19.22999954   5.50000000  50.86999893
C    18.89000130   4.90999985  49.61000061
C    19.93999863   4.77999973  48.72000122
C    21.27000046   5.19000006  48.99000168
C    22.34999847   5.12000036  48.06000137
C    23.64000130   5.40000010  48.44999695
C    23.92999840   6.00000000  49.69999695
C    22.89999962   6.15000010  50.59999847
C    21.60000038   5.66999960  50.30000305
C    17.45000076   4.78999996  49.41999817
C    16.72999954   5.21000004  50.56999969
C    15.34000015   5.33999968  50.59999847
C    25.35000038   6.40999985  50.04000092
H    25.89300728   5.81698036  50.77591705
H    20.72000122   6.34999990  52.15000153
H    19.70000076   4.33999968  47.76000214
H    22.20000076   4.67000008  47.08000183
H    24.40999985   5.33999968  47.68000031
H    23.09999847   6.58999968  51.56999969
H    14.92000008   5.55999994  51.56999969
H    25.95000076   6.32999992  49.13000107
H    25.26000023   7.49000025  50.24000168
S    14.22999954   4.13999987  46.95000076
C    11.51000023   4.11999989  47.70999908
C    12.82999992   4.42000008  47.98999786
C    13.19000053   5.00000000  49.25000000
C    12.20999908   5.18000031  50.20999908
C    10.85999966   4.77999973  50.00999832
C     9.85999966   5.09999990  50.97999954
C     8.52999973   4.85000038  50.75000000
C     8.21000004   4.21999979  49.51000214
C     9.15000057   3.94000006  48.54000092
C    10.52000046   4.26999998  48.70999908
C    14.63000107   4.97000027  49.45000076
C    15.31999969   4.48000002  48.30999756
C    16.70999908   4.44999981  48.27999878
C     6.77999973   3.77999997  49.34000015
H     6.34683800   4.45459604  48.60149384
H    11.19999981   3.75000000  46.73999786
H    12.31999969   5.52999973  51.23000336
H    10.14999962   5.77000046  51.79000092
H     7.75000000   5.03999996  51.49000168
H     8.82000065   3.61999989  47.56000137
H    17.21999931   4.03999996  47.42000198
H     6.34000015   3.91000009  50.34000015
H     6.71000004   2.70000005  49.15999985
