96

S    17.20000076   5.29999971  57.97999954
C    19.89999962   5.42999983  57.30999756
C    18.63999939   4.96000004  57.01000214
C    18.27000046   4.41000032  55.73999786
C    19.29000092   4.13999987  54.85000229
C    20.62000084   4.51999998  55.10000229
C    21.56999969   4.51999998  54.03999710
C    22.79999924   5.09000015  54.31000137
C    23.06999969   5.82000017  55.50000000
C    22.13999939   5.91000032  56.51000214
C    20.89999962   5.23999977  56.31999969
C    16.82999992   4.40000010  55.52000046
C    16.10999870   4.88000011  56.63999939
C    14.73000050   5.05999994  56.62000275
C    24.47000122   6.28999996  55.81999969
H    24.79717636   5.72811270  56.69483566
H    20.09000015   6.03999996  58.18999863
H    19.07999992   3.84999990  53.81999969
H    21.32999802   4.09999990  53.06999969
H    23.57999992   4.88000011  53.59000397
H    22.26000023   6.50000000  57.41000366
H    14.19000053   5.53999996  57.43000031
H    25.10000038   6.06999969  54.94999695
H    24.47999954   7.37999964  55.90999985
S    13.66000080   3.63999987  53.06999969
C    10.90999985   3.78999996  53.61000061
C    12.20000076   4.11000013  53.95999908
C    12.61999989   4.67000008  55.20999908
C    11.54999924   4.94000006  56.04999924
C    10.21000004   4.57999992  55.79999924
C     9.26000023   4.69000006  56.86000061
C     7.95000029   4.30999994  56.65999985
C     7.59000015   3.78999996  55.38999939
C     8.48999977   3.61000013  54.36999893
C     9.85000038   3.98999977  54.54000092
C    14.04999924   4.65999985  55.45999908
C    14.77000046   4.11000013  54.36999893
C    16.14999962   3.96000004  54.36999893
C     6.19999981   3.24000001  55.17000198
H     5.73096561   3.80852652  54.36695480
H    10.80000019   3.24000001  52.68000031
H    11.64999962   5.51000023  56.97000122
H     9.65999985   4.98000002  57.83000183
H     7.22000027   4.26999998  57.45999908
H     8.19999981   3.25999999  53.37999725
H    16.68000031   3.53999996  53.52000427
H     5.71000004   3.38000011  56.13999939
H     6.25000000   2.16000009  54.99000168
S    17.53999901   5.56999969  51.97000122
C    20.25000000   5.75000000  51.27999878
C    18.95000076   5.51000023  50.90000153
C    18.51000023   5.23000002  49.55999756
C    19.50000000   5.03999996  48.61999893
C    20.86000061   5.17000008  48.95999908
C    21.87999916   5.05000019  47.97000122
C    23.19999886   5.36000013  48.22000122
C    23.57000160   5.69999981  49.54999924
C    22.62000084   5.78999996  50.54999924
C    21.24000168   5.55999994  50.28999710
C    17.05999947   5.19000006  49.41999817
C    16.38000107   5.45000029  50.63000107
C    15.00000000   5.36999989  50.72999954
C    25.00999832   6.10000038  49.79000092
H    25.46552086   5.68006802  50.68680573
H    20.45999908   6.30000019  52.18999863
H    19.20999908   5.03000021  47.56999969
H    21.51000023   4.94000006  46.95000076
H    23.95999908   5.32999992  47.44999695
H    22.84000015   6.01000023  51.59000015
H    14.52000046   5.55999994  51.68000031
H    25.53999901   5.72000027  48.90999603
H    25.03000069   7.18999958  49.72999954
S    13.89000034   4.46999979  47.01000214
C    11.21999931   4.15000010  47.74000168
C    12.48999977   4.53000021  48.09999847
C    12.84000015   4.94000006  49.41999817
C    11.84999943   5.13000011  50.35999680
C    10.52000046   4.74000025  50.04000092
C     9.46000004   5.05000019  50.93999863
C     8.17000008   4.67000008  50.68000031
C     7.90999985   4.00999975  49.45000076
C     8.89000034   3.84000015  48.48999786
C    10.25000000   4.13000011  48.76999664
C    14.28999996   5.07000017  49.55999756
C    14.98999977   4.92000008  48.33000183
C    16.36999893   4.90000010  48.22999954
C     6.48999977   3.58999991  49.16999817
H     6.10463476   4.17518473  48.33504105
H    11.06999969   3.94000006  46.68000031
H    12.06999969   5.38000011  51.39999771
H     9.72999954   5.55000019  51.86999893
H     7.46000004   4.74000025  51.50000000
H     8.61999989   3.63000011  47.45999908
H    16.88999939   4.61999989  47.31999969
H     5.96000004   3.63999987  50.12000275
H     6.51000023   2.51999998  48.92000198
