96

S    17.02000046   5.00999975  58.18999863
C    19.73999977   5.15999985  57.58999634
C    18.45999908   4.86000013  57.16999817
C    18.15000153   4.38000011  55.86000061
C    19.11000061   4.28000021  54.86999893
C    20.43000031   4.65999985  55.24000168
C    21.50000000   4.46000004  54.31999969
C    22.72000122   4.99000025  54.64000320
C    23.01000214   5.44000053  55.96000290
C    22.04999924   5.47999954  56.93999863
C    20.72999954   5.07000017  56.59000015
C    16.70999908   4.33999968  55.65000153
C    15.97000027   4.76999998  56.77999878
C    14.61999989   5.07000017  56.86000061
C    24.37000084   5.98000002  56.32999802
H    24.94595146   5.14806843  56.73530197
H    19.90999985   5.68000031  58.53000259
H    18.89000130   4.00000000  53.85000229
H    21.19999886   4.00000000  53.39000320
H    23.50000000   5.03999996  53.88999939
H    22.30999947   5.78000021  57.95000076
H    14.09000015   5.33999968  57.77000046
H    24.82999992   6.37000036  55.41999817
H    24.34000015   6.71999979  57.14000320
S    13.55000019   3.89999986  53.18000031
C    10.85999966   3.81999993  53.80000305
C    12.13000107   4.15999985  54.20999908
C    12.46000099   4.61000013  55.52999878
C    11.39000034   4.79999971  56.38000107
C    10.08999920   4.35999966  56.06999969
C     9.00000000   4.59000015  56.95000076
C     7.69000006   4.42000008  56.56000137
C     7.40000010   3.75000000  55.34000015
C     8.43999958   3.53999996  54.47000122
C     9.80000019   3.84999990  54.75000000
C    13.89999962   4.72000027  55.70999908
C    14.59000015   4.23000002  54.56999969
C    15.97000027   4.09000015  54.47999954
C     5.98999977   3.35000014  54.93999863
H     5.52135277   4.04586983  54.24412918
H    10.76000023   3.38999987  52.81000137
H    11.54999924   5.01999950  57.43999863
H     9.18000031   4.99000025  57.95000076
H     6.93000031   4.67999983  57.29000092
H     8.27999973   3.16000009  53.46000290
H    16.48999977   3.70000005  53.61000061
H     5.44000053   3.30000019  55.87999725
H     5.96000004   2.37000012  54.47000122
S    13.83999920   2.13000011  50.25000000
C    11.16000080   1.54999995  50.86999893
C    12.50000000   1.38000000  51.14999771
C    12.94999981   0.79000002  52.36999893
C    11.97000027   0.19000000  53.13999939
C    10.59000015   0.48999998  53.04000092
C     9.57999992  -0.06000000  53.88000107
C     8.25000000   0.23000000  53.68999863
C     7.83999968   0.88999999  52.49000168
C     8.78999996   1.29999995  51.59000015
C    10.19000053   1.12000000  51.81000137
C    14.40000057   0.81000000  52.51999664
C    15.00000000   1.49000001  51.43000031
C    16.36999893   1.74000001  51.38000107
C     6.38000011   0.83999997  52.11999893
H     6.25893307   0.09935403  51.32950211
H    10.80999947   2.14000010  50.02999878
H    12.27000046  -0.46000001  53.95999908
H     9.78999996  -0.59999996  54.79999924
H     7.50000000  -0.24000001  54.31999969
H     8.50000000   1.79000008  50.65999985
H    16.86000061   2.40999985  50.68999863
H     5.64000034   0.50000000  52.85999680
H     6.10000038   1.85000002  51.77000046
S    17.72999954   0.13000000  54.75999832
C    20.36999893   0.79000002  54.22000122
C    19.04000092   0.93000001  53.87000275
C    18.57999992   1.53999996  52.65999603
C    19.51000023   1.98000002  51.73999786
C    20.88000107   1.81999993  52.09000015
C    21.80999947   2.22000003  51.09000397
C    23.13999939   2.37000012  51.40999603
C    23.61000061   2.02999997  52.70000076
C    22.75000000   1.43999994  53.60000229
C    21.35999870   1.29999995  53.34000015
C    17.13999939   1.36999989  52.49000168
C    16.54000092   0.65999997  53.55999756
C    15.19999981   0.28000000  53.54999924
C    25.07999802   2.27999997  52.95000076
H    25.32847214   1.69786513  53.83740234
H    20.68000031   0.45000002  55.20999908
H    19.20999908   2.05999994  50.70000076
H    21.40000153   2.64999986  50.19000244
H    23.85000038   2.71000004  50.65999985
H    23.05999947   1.21000004  54.61000061
H    14.68000031  -0.16000001  54.38999939
H    25.39999962   3.31999993  53.02999878
H    25.69000053   1.87999988  52.11999893
