96

S    17.13000107   5.82000017  57.88999939
C    19.88999939   5.59999990  57.27000427
C    18.56999969   5.35000038  56.95999908
C    18.18000031   4.82999992  55.68999863
C    19.18000031   4.50000000  54.79000092
C    20.53999901   4.80999994  55.02999878
C    21.55999947   4.46000004  54.09999847
C    22.86000061   4.85000038  54.34000015
C    23.15000153   5.53999996  55.54000092
C    22.22999954   5.79999971  56.52999878
C    20.89999962   5.35000038  56.31000137
C    16.73999977   4.78999996  55.50000000
C    16.02000046   5.22000027  56.63999939
C    14.63000107   5.32999992  56.60999680
C    24.56999969   6.00000000  55.76000214
H    25.11822319   5.30938148  56.40077972
H    20.20000076   5.92999983  58.26000214
H    18.84000015   4.09000015  53.83999634
H    21.27000046   4.23999977  53.08000183
H    23.52999878   4.90999985  53.48999786
H    22.47999954   6.42000008  57.38999939
H    14.07999992   5.73000002  57.45999908
H    25.06999969   6.06999969  54.79000092
H    24.65999985   6.94000006  56.31999969
S    13.60000038   4.00999975  53.06000137
C    10.85000038   3.96000004  53.68000031
C    12.15000057   4.13999987  54.06999969
C    12.50000000   4.75000000  55.31999969
C    11.51000023   4.99000025  56.25999832
C    10.15999985   4.76000023  55.90000153
C     9.15000057   4.82999992  56.90999985
C     7.83999968   4.50000000  56.63999939
C     7.49000025   4.00999975  55.35999680
C     8.46000004   3.84999990  54.40000153
C     9.81000042   4.25000000  54.59999847
C    13.94000053   4.90999985  55.47000122
C    14.70999908   4.46000004  54.36999893
C    16.09000015   4.32999992  54.34999847
C     6.07999992   3.56999993  55.01999664
H     5.53022766   4.14833260  54.27744675
H    10.57000065   3.55999994  52.70000076
H    11.73999977   5.15999985  57.29999924
H     9.50000000   5.12000036  57.90000153
H     7.13000011   4.63999987  57.44999695
H     8.22000027   3.30999994  53.47999954
H    16.55999947   3.95000005  53.43999863
H     5.51000023   3.61999989  55.96000290
H     6.17999983   2.53999996  54.65000153
S    17.84000015   6.17000008  52.04999924
C    20.51000214   6.15999985  51.20999908
C    19.19000053   5.84000015  50.94999695
C    18.81999969   5.25000000  49.69999695
C    19.76000023   5.03000021  48.69999695
C    21.11000061   5.36000013  48.95999908
C    22.15999985   5.23000002  48.01000214
C    23.45000076   5.58000040  48.31999969
C    23.78999901   6.05000019  49.61999893
C    22.82999992   6.28000021  50.56999969
C    21.51000023   5.88000011  50.24000168
C    17.36999893   5.22000027  49.59000015
C    16.72000122   5.75000000  50.72999954
C    15.34000015   5.78000021  50.80999756
C    25.25000000   6.30999994  49.92000198
H    25.66921806   5.71314573  50.73001480
H    20.55000114   6.67999983  52.15999985
H    19.37999916   4.59999990  47.77999878
H    21.94999886   4.80999994  47.02999878
H    24.26000214   5.18000031  47.71999741
H    23.09999847   6.57999992  51.58000183
H    14.98999977   6.15999985  51.77000046
H    25.79999924   6.35999966  48.96999741
H    25.19000053   7.32999992  50.31000137
S    14.26000023   4.23000002  47.29000092
C    11.56999969   4.13000011  47.90999985
C    12.84000015   4.44999981  48.34000015
C    13.14000034   5.00999975  49.61999893
C    12.07999992   5.31000042  50.45000076
C    10.75000000   4.97000027  50.11000061
C     9.63000011   5.26000023  50.93000031
C     8.36999989   4.76000023  50.68000031
C     8.18000031   4.15000010  49.40999985
C     9.17000008   4.09000015  48.44999695
C    10.51000023   4.39000034  48.81999969
C    14.56999969   5.25000000  49.77000427
C    15.27999973   4.78999996  48.61999893
C    16.65999985   4.69999981  48.50000000
C     6.83000040   3.60000014  49.05000305
H     6.48822212   4.04858398  48.11723328
H    11.31000042   3.88000011  46.88000107
H    12.30000019   5.86000013  51.36000061
H     9.86999989   5.91000032  51.76000214
H     7.55000019   4.96000004  51.37000275
H     8.97000027   3.72000003  47.44999695
H    17.13999939   4.32000017  47.60000229
H     6.11999989   3.88999987  49.84000397
H     6.90000010   2.50999975  48.94000244
