96

S    16.95000076   5.35000038  57.69000244
C    19.69000053   5.32999992  56.93999863
C    18.38000107   4.96000004  56.72000122
C    18.04000092   4.23000002  55.54000092
C    19.01000023   3.98999977  54.58000183
C    20.36000061   4.32999992  54.79999924
C    21.47000122   4.18000031  53.92000198
C    22.73999977   4.67000008  54.08000183
C    23.02000046   5.32999992  55.31000137
C    22.01999855   5.51000023  56.25000000
C    20.68000031   5.13000011  55.94999695
C    16.60000038   4.11999989  55.38999939
C    15.86999989   4.57999992  56.51000214
C    14.48999977   4.74000025  56.56000137
C    24.43000031   5.73999977  55.68000031
H    24.84888077   5.19332600  56.52486038
H    19.95000076   5.69999981  57.93000031
H    18.73999977   3.40999985  53.69999695
H    21.35000038   3.70000005  52.95000076
H    23.46999931   4.39000034  53.33000183
H    22.25000000   5.73000002  57.29000092
H    13.97999954   5.00999975  57.48000336
H    25.02000046   5.69000006  54.75999832
H    24.30999947   6.78999996  55.96000290
S    13.40999985   3.44000006  52.95000076
C    10.71000004   3.51999998  53.61999893
C    12.01000023   3.77999997  53.97999573
C    12.32999992   4.26000023  55.28999710
C    11.32999992   4.42999983  56.23000336
C     9.96999931   4.15000010  55.91999817
C     8.90999985   4.30000019  56.86000061
C     7.63000011   3.98999977  56.45999908
C     7.44999981   3.37000012  55.19000244
C     8.38999939   3.30999994  54.19000244
C     9.68999958   3.72000003  54.58000183
C    13.78000069   4.39000034  55.40000153
C    14.48999977   3.93000007  54.26000214
C    15.86999989   3.76999998  54.25000000
C     6.09000015   2.76999998  54.92000198
H     5.62096500   3.33852744  54.11695480
H    10.44000053   3.16000009  52.63000107
H    11.57999992   4.74000025  57.23999786
H     9.07999992   4.53999996  57.90000153
H     6.84000015   4.11999989  57.18999863
H     8.11999989   2.89999986  53.22000122
H    16.35000038   3.38000011  53.36000061
H     5.49000025   3.03999996  55.79999924
H     6.19999981   1.69000006  54.79000092
S    17.82999992   5.46999979  52.21000290
C    20.45000076   5.89999962  51.38999939
C    19.19000053   5.45000029  51.06999969
C    18.81999969   5.03000021  49.75000000
C    19.78999901   4.92000008  48.77999878
C    21.12999916   5.10999966  49.18000031
C    22.14999962   4.69000006  48.27999878
C    23.46999931   4.94000006  48.57999802
C    23.80000114   5.61999989  49.78000259
C    22.86000061   5.98000002  50.70999908
C    21.48999977   5.66999960  50.45999908
C    17.38000107   4.81999969  49.65000153
C    16.72000122   5.18000031  50.84999847
C    15.32999992   5.23999977  50.90000153
C    25.25000000   5.97000027  49.99000168
H    25.69806099   5.57172489  50.90034103
H    20.58000183   6.37000036  52.36999893
H    19.59000015   4.32999992  47.88000107
H    21.80999947   4.34999990  47.29999924
H    24.23999977   4.74000025  47.84000015
H    23.11000061   6.38000011  51.69000244
H    14.81999969   5.53999996  51.81000137
H    25.88000107   5.65999985  49.15000153
H    25.43000031   7.05999947  50.01999664
S    14.17000008   3.95000005  47.38999939
C    11.42000008   4.07000017  47.93000031
C    12.71000004   4.28999996  48.34000015
C    13.09999943   4.79999971  49.61999893
C    12.07999992   4.98000002  50.54000092
C    10.72000027   4.75000000  50.19000244
C     9.59000015   4.92000008  51.04000092
C     8.27999973   4.71000004  50.70999908
C     7.96999979   4.11000013  49.45000076
C     9.02000046   4.02999973  48.56999969
C    10.38000011   4.33999968  48.85000229
C    14.53999996   4.92000008  49.79000092
C    15.27999973   4.48999977  48.67000198
C    16.65999985   4.53999996  48.48999786
C     6.58999968   3.63000011  49.09000015
H     6.11587906   4.18903828  48.28328705
H    11.18999958   3.45999980  47.04999924
H    12.25000000   5.23000002  51.58000183
H     9.80000019   5.35000038  52.01000214
H     7.53000021   4.86000013  51.47999573
H     8.85999966   3.44000006  47.65999603
H    17.05000114   4.30000019  47.50000000
H     6.01999998   3.65999985  50.02999878
H     6.63000011   2.56999993  48.82999802
