96

S    17.11000061   5.27999973  58.09999847
C    19.77000046   5.33999968  57.34000397
C    18.47999954   4.99000025  57.01000214
C    18.15999985   4.35999966  55.77000046
C    19.10000038   4.09000015  54.78000259
C    20.39999962   4.56999969  55.06999969
C    21.51000023   4.23999977  54.23999786
C    22.81999969   4.53999996  54.55999756
C    23.06999969   5.38000011  55.68000031
C    22.04999924   5.71000004  56.53999710
C    20.72999954   5.23999977  56.30000305
C    16.72000122   4.23999977  55.65000153
C    16.03999901   4.69999981  56.81000137
C    14.65999985   4.76999998  56.91999817
C    24.51999855   5.68000031  55.98999786
H    24.98281479   5.08902168  56.78034210
H    20.02000046   5.73999977  58.30999756
H    18.96999931   3.38000011  53.96999741
H    21.18999863   3.88999987  53.27000046
H    23.57999992   4.01999998  53.99000168
H    22.37999916   6.02999973  57.51999664
H    14.06000042   5.09000015  57.77000046
H    25.20000076   5.59000015  55.13000107
H    24.54999924   6.74000025  56.26999664
S    13.45999908   3.48000002  53.29999924
C    10.77999973   3.45999980  54.02999878
C    12.06999969   3.84000015  54.34000015
C    12.48000050   4.33999968  55.61999893
C    11.46999931   4.63000011  56.52999878
C    10.11999989   4.38000011  56.19999695
C     9.11000061   4.76999998  57.11999893
C     7.77999973   4.50000000  56.88999939
C     7.42000008   3.72000003  55.76000214
C     8.36999989   3.38999987  54.81999969
C     9.75000000   3.72000003  54.97000122
C    13.92000008   4.42000008  55.77999878
C    14.56999969   3.98999977  54.59000015
C    15.95999908   3.91999984  54.52000046
C     6.01999998   3.24000001  55.47999954
H     5.55618382   3.70381594  54.60945511
H    10.46000004   2.91000009  53.15999985
H    11.69000053   4.97000027  57.52999878
H     9.42000008   5.28999996  58.02000046
H     7.04999971   4.84000015  57.63000107
H     8.19999981   2.79000020  53.93000031
H    16.48999977   3.88000011  53.56999969
H     5.49000025   3.38999987  56.43000031
H     6.01000023   2.14000010  55.40000153
S    17.67000008   5.52999973  52.09999847
C    20.36999893   5.56999969  51.47999573
C    19.09000015   5.21000004  51.09000397
C    18.72999954   4.67999983  49.80999756
C    19.75000000   4.41000032  48.90999603
C    21.07000160   4.85000038  49.18000031
C    22.11999893   4.69999981  48.22999954
C    23.36000061   5.19999981  48.55999756
C    23.67000198   5.82000017  49.79000092
C    22.69000053   5.80999947  50.75000000
C    21.35000038   5.42000008  50.47000122
C    17.28999901   4.55000019  49.65999985
C    16.57999992   4.90999985  50.84000015
C    15.19999981   4.99000025  50.90000153
C    25.10999870   6.19999981  50.07999802
H    25.52313995   5.60165930  50.89203262
H    20.56999969   6.17000008  52.36000061
H    19.54000092   3.88999987  47.97999954
H    21.98999786   4.38000011  47.19999695
H    24.09000015   5.09999990  47.76000214
H    22.79999924   6.21999979  51.75000000
H    14.67000008   5.46999979  51.72000122
H    25.81999969   6.12999964  49.25000000
H    25.06999969   7.26000023  50.35999680
S    14.02999973   3.82999992  47.29000092
C    11.31000042   3.86999989  48.01000214
C    12.61999989   4.21000004  48.29999924
C    12.98999977   4.61999989  49.61999893
C    11.98999977   5.00000000  50.48999786
C    10.62999916   4.85000038  50.13000107
C     9.59000015   5.03000021  51.07999802
C     8.34999943   4.46999979  50.86999893
C     8.01000023   3.77999997  49.66999817
C     8.97999954   3.58999991  48.70999908
C    10.27999973   4.11000013  48.95000076
C    14.44000053   4.57999992  49.79999924
C    15.14000034   4.17000008  48.62999725
C    16.53000069   4.19000006  48.54999924
C     6.60000038   3.28999996  49.45000076
H     6.20304203   3.82164001  48.58519745
H    11.03999996   3.35999990  47.09000015
H    12.18000031   5.38999987  51.49000168
H    10.01000023   5.23999977  52.05999756
H     7.63000011   4.53000021  51.68000031
H     8.80000019   3.08999991  47.76000214
H    17.09000015   3.98999977  47.63999939
H     6.06999969   3.30000019  50.40999985
H     6.71999979   2.24000001  49.13999939
