96

S    17.50000000   5.64000034  57.93000031
C    20.22999954   5.79999971  57.23999786
C    18.94000053   5.42999983  56.91999817
C    18.61999893   4.94999981  55.61000061
C    19.65999985   4.65999985  54.73999786
C    21.00000000   4.90999985  55.08999634
C    22.11999893   4.61000013  54.25000000
C    23.39999962   4.99000025  54.56999969
C    23.67000198   5.47999954  55.86999893
C    22.65999985   5.63000011  56.79999924
C    21.31000137   5.44000053  56.38999939
C    17.19000053   4.92000008  55.34999847
C    16.48999977   5.22000027  56.53999710
C    15.10000038   5.18000031  56.58000183
C    25.07999802   5.82999992  56.27999878
H    25.47326660   5.30802488  57.15233994
H    20.43999863   6.26999950  58.20000076
H    19.48999977   4.28999996  53.73000336
H    22.00000000   4.15000010  53.27000046
H    24.20000076   4.88000011  53.83999634
H    22.86999893   5.92999983  57.81999969
H    14.57999992   5.53999996  57.45999908
H    25.76000023   5.65000010  55.44000244
H    25.13999939   6.84999990  56.69000244
S    13.99000072   4.00999975  52.95000076
C    11.30000019   3.84999990  53.62999725
C    12.57999992   4.19999981  54.00000000
C    12.93000031   4.63999987  55.31999969
C    11.92000008   4.90999985  56.22000122
C    10.60999966   4.44999981  55.96000290
C     9.51000023   4.63000011  56.84999847
C     8.22000027   4.30000019  56.52999878
C     7.96999979   3.84999990  55.20999908
C     8.97000027   3.68000007  54.27000046
C    10.31000042   3.96000004  54.64000320
C    14.37000084   4.76000023  55.45999908
C    15.08999920   4.42000008  54.27999878
C    16.46999931   4.53999996  54.20999908
C     6.60000038   3.31999993  54.86999893
H     6.14392519   3.81883216  54.01486206
H    10.98999977   3.58000016  52.62000275
H    12.05000019   5.46000004  57.15000153
H     9.68000031   4.88000011  57.90000153
H     7.42000008   4.23999977  57.27000427
H     8.69999981   3.30000019  53.29000092
H    16.92000008   4.30999994  53.25000000
H     5.89999962   3.60000014  55.65999985
H     6.60000038   2.22000003  54.78000259
S    14.11999893   1.89999998  50.08999634
C    11.44000053   1.33000004  50.81999969
C    12.79000092   1.22000003  51.05999756
C    13.19000053   0.69000000  52.32999802
C    12.18999958   0.27000001  53.18999863
C    10.81999969   0.27000001  52.83000183
C     9.86999989  -0.32999998  53.69999695
C     8.52999973  -0.28999999  53.40000153
C     8.03999996   0.28999999  52.19999695
C     8.96000004   0.85000002  51.33999634
C    10.36000061   0.82999998  51.59000015
C    14.63999939   0.78000003  52.41000366
C    15.29000092   1.50000000  51.37000275
C    16.61000061   1.92000008  51.45000076
C     6.56000042   0.55000001  51.97000122
H     6.19732475   0.24421498  50.98864365
H    11.19999981   1.90999997  49.93000031
H    12.48000050   0.09000000  54.22999954
H    10.21999931  -0.82000005  54.59999847
H     7.81000042  -0.52999997  54.16999817
H     8.71000004   1.41000009  50.44000244
H    17.13999939   2.36000013  50.61000061
H     6.06999969   0.02000000  52.80000305
H     6.48000002   1.64000010  52.04999924
S    17.86000061   0.45000002  54.88999939
C    20.61000061   0.94999999  54.27000046
C    19.27000046   1.13999999  54.05000305
C    18.76000023   1.71000004  52.84000015
C    19.64999962   2.25000000  51.93999863
C    21.04000092   2.00999999  52.09000015
C    22.00000000   2.30999994  51.09000397
C    23.36000061   2.22000003  51.31999969
C    23.81999969   1.85000002  52.61000061
C    22.95000076   1.30999994  53.52000427
C    21.54000092   1.42000008  53.30999756
C    17.31999969   1.65000010  52.63000107
C    16.65999985   0.97999996  53.68999863
C    15.34000015   0.57999998  53.61000061
C    25.29000092   1.50000000  52.69000244
H    25.73664665   1.76940525  53.64709473
H    20.95000076   0.43000001  55.15999603
H    19.27999878   2.63999987  51.00000000
H    21.56999969   2.48000002  50.11000061
H    23.98999977   2.42000008  50.45999908
H    23.26000023   0.78000003  54.41999817
H    14.78000069   0.19999999  54.45999908
H    25.78000069   2.01999998  51.86000061
H    25.31999969   0.41000003  52.63000107
