96

S    16.64999962   5.42999983  57.93000031
C    19.42000008   5.28999996  57.29999924
C    18.09999847   5.07000017  56.95999908
C    17.69000053   4.56999969  55.68999863
C    18.71000099   4.33999968  54.78000259
C    20.07999802   4.50000000  55.08999634
C    21.09999847   4.21000004  54.13999939
C    22.37999916   4.67000008  54.31000137
C    22.73999977   5.32000017  55.52000046
C    21.78999901   5.55000019  56.49000168
C    20.45000076   5.09999990  56.35000229
C    16.25000000   4.57999992  55.48999786
C    15.52000046   4.98000002  56.63999939
C    14.13000011   5.03000021  56.70999908
C    24.18999863   5.73999977  55.59000015
H    24.69391441   5.20059776  56.39200592
H    19.70999908   5.77000046  58.22999954
H    18.43000031   3.88999987  53.82999802
H    20.88999939   3.75999975  53.16999817
H    23.03999901   4.59000015  53.44999695
H    22.15999985   6.02999973  57.38999939
H    13.56999969   5.32999992  57.58999634
H    24.77000046   5.65000010  54.65999985
H    24.20999908   6.80999994  55.83000183
S    13.02000046   3.98000002  53.04999924
C    10.34000015   3.71000004  53.81000137
C    11.63000011   4.03999996  54.15000153
C    12.02000046   4.21999979  55.52000046
C    11.09000015   4.33999968  56.52999878
C     9.73999977   4.05000019  56.20999908
C     8.71000004   4.32999992  57.15000153
C     7.42000008   4.09999990  56.75000000
C     7.03999996   3.51000023  55.52000046
C     8.01999950   3.42000008  54.54999924
C     9.36999989   3.75999975  54.85000229
C    13.43999958   4.55000019  55.59000015
C    14.14000034   4.21000004  54.40999985
C    15.52999973   4.15999985  54.36999893
C     5.63000011   3.19000006  55.10000229
H     5.33682966   3.83354521  54.27054596
H    10.11999989   3.42999983  52.78999710
H    11.38000011   4.65999985  57.52999878
H     8.90999985   4.92999983  58.02999878
H     6.65000010   4.56999969  57.36999893
H     7.85000038   3.19000006  53.50000000
H    16.05999947   4.00999975  53.43000031
H     4.90999985   3.31999993  55.93000031
H     5.50000000   2.11999989  54.86999893
S    17.43000031   5.69999981  51.95000076
C    20.17000008   5.75000000  51.26999664
C    18.86999893   5.47999954  50.93000031
C    18.43000031   5.13000011  49.61000061
C    19.44000053   5.05000019  48.66000366
C    20.81000137   5.19999981  48.95000076
C    21.91999817   5.09000015  48.06000137
C    23.22999954   5.36000013  48.36999893
C    23.57000160   5.78999996  49.68000031
C    22.53999901   5.82000017  50.59999847
C    21.18999863   5.51000023  50.31000137
C    16.97999954   5.09000015  49.48999786
C    16.25000000   5.38999987  50.66999817
C    14.89999962   5.73000002  50.66999817
C    24.86000061   6.50000000  50.00000000
H    25.46326828   5.79737186  50.57487488
H    20.31999969   6.17000008  52.25999832
H    19.27999878   4.88999987  47.60000229
H    21.61000061   4.90999985  47.04000092
H    23.95999908   5.42999983  47.56999969
H    22.85000038   6.23000050  51.56000137
H    14.44000053   5.95000029  51.63000107
H    25.27000046   6.81999969  49.02999878
H    24.64999962   7.32999992  50.68000031
S    13.76000023   4.51999998  47.09000015
C    11.05999947   4.48000002  47.78999710
C    12.35999966   4.72000027  48.15999985
C    12.67000008   5.32999992  49.41999817
C    11.69000053   5.47999954  50.38000107
C    10.36999893   5.09000015  50.06999969
C     9.32999992   5.15999985  51.04999924
C     8.03999996   4.77999973  50.76000214
C     7.69999981   4.30999994  49.47000122
C     8.65999985   4.36999989  48.47999954
C    10.01999950   4.67999983  48.74000168
C    14.11999893   5.42000008  49.54999924
C    14.84000015   4.99000025  48.40999985
C    16.22999954   4.96000004  48.31999969
C     6.23000050   4.01999998  49.26000214
H     5.89007378   4.48031712  48.33228683
H    10.86999989   3.86999989  46.90999985
H    11.82000065   5.79999971  51.40999603
H     9.48999977   5.65999985  52.00000000
H     7.31999969   4.94999981  51.56000137
H     8.47000027   4.02999973  47.47000122
H    16.73999977   4.74000025  47.37999725
H     5.72000027   4.34999990  50.17000198
H     6.21000004   2.93000007  49.20000076
