96

S    17.10000038   5.36000013  57.91999817
C    19.72999954   5.59999990  57.09000015
C    18.45999908   5.13000011  56.81000137
C    18.12000084   4.73000002  55.47999954
C    19.07999992   4.65000010  54.48999786
C    20.42000008   4.92000008  54.84000397
C    21.54999924   4.55999994  54.03999710
C    22.85000038   4.76999998  54.43000031
C    23.16999817   5.59999990  55.54999924
C    22.11000061   5.82999992  56.38999939
C    20.76000023   5.46999979  56.11999893
C    16.72999954   4.30000019  55.47999954
C    16.04999924   4.65000010  56.66999817
C    14.65999985   4.65000010  56.70000076
C    24.56000137   5.97000027  56.00000000
H    25.02078438   5.28945732  56.71598816
H    19.79999924   6.07999992  58.06000137
H    18.81999969   3.98999977  53.66000366
H    21.25999832   4.07000017  53.11999893
H    23.64000130   4.36999989  53.80000305
H    22.50000000   6.28999996  57.29999924
H    14.11999893   4.98000002  57.57999802
H    25.10999870   5.84999990  55.06000137
H    24.47000122   6.98000002  56.40999603
S    13.50000000   3.47000003  53.09000015
C    10.78999996   3.53999996  53.70999908
C    12.09000015   3.68000007  54.15000153
C    12.43999958   4.18000031  55.45000076
C    11.40999985   4.51999998  56.31000137
C    10.07999992   4.28999996  55.90000153
C     8.98999977   4.44999981  56.79999924
C     7.69999981   4.07999992  56.52999878
C     7.39000034   3.51999998  55.25000000
C     8.38000011   3.40999985  54.29999924
C     9.71000004   3.78999996  54.59999847
C    13.89000034   4.21999979  55.61000061
C    14.59000015   3.88000011  54.43000031
C    15.98000050   3.84999990  54.38000107
C     6.00000000   3.05000019  54.92000198
H     5.58253479   3.62313008  54.09214783
H    10.57000065   3.07000017  52.76000214
H    11.63000011   4.88000011  57.30999756
H     9.30999947   4.86000013  57.76000214
H     6.98000002   4.19000006  57.32999802
H     8.17000008   3.07000017  53.29000092
H    16.43000031   3.68999982  53.40999985
H     5.44000053   3.14000010  55.86000061
H     6.07999992   1.98000002  54.69999695
S    14.25000000   1.76999998  50.07999802
C    11.54000092   1.15999997  50.59000015
C    12.86999893   1.01999998  50.90000153
C    13.25000000   0.34000003  52.11000061
C    12.22000027  -0.20999999  52.84999847
C    10.82999992  -0.13000000  52.60000229
C     9.85000038  -0.59999996  53.52000427
C     8.55000019  -0.27000001  53.22000122
C     8.15999985   0.55000001  52.12999725
C     9.15000057   0.94999999  51.25999832
C    10.52000046   0.59999996  51.39999771
C    14.68999958   0.38000000  52.31999969
C    15.32999992   1.23000002  51.38000107
C    16.61999893   1.69000006  51.59000015
C     6.70000029   0.64999998  51.77000046
H     6.36557102  -0.28213310  51.31460571
H    11.14999962   1.86000001  49.85000229
H    12.56999969  -0.59000003  53.80000305
H    10.13000011  -1.22000003  54.36999893
H     7.72000027  -0.85000002  53.62999725
H     8.89999962   1.53999996  50.37000275
H    17.19000053   2.25000000  50.86000061
H     6.11000013   0.83999997  52.68000031
H     6.53999996   1.47000003  51.04999924
S    17.75000000  -0.17999999  54.93000031
C    20.46999931   0.48000002  54.43000031
C    19.12999916   0.63000000  54.15999985
C    18.75000000   1.13999999  52.88000107
C    19.71999931   1.63000000  52.02000046
C    21.09000015   1.58999991  52.36000061
C    22.07999992   2.00000000  51.43000031
C    23.43000031   1.90999997  51.69000244
C    23.81999969   1.35000002  52.93000031
C    22.89999962   0.79000002  53.77999878
C    21.50000000   1.00999999  53.61999893
C    17.31999969   1.08999991  52.64999771
C    16.65999985   0.27000001  53.61000061
C    15.31000042  -0.04000000  53.50999832
C    25.23999977   1.48000002  53.44999695
H    25.58061790   0.79167026  54.22348404
H    20.76000023  -0.13000000  55.27999878
H    19.36000061   1.94000006  51.04000092
H    21.73000145   2.38000011  50.47999954
H    24.18000031   2.19000006  50.96000290
H    23.22999954   0.41999999  54.75000000
H    14.65999985  -0.44000000  54.27999878
H    25.39999962   2.50999975  53.81000137
H    25.85000038   1.46000004  52.54000092
