96

S    17.57999992   5.59000015  57.85999680
C    20.31999969   5.55999994  57.08000183
C    18.98999977   5.32999992  56.81000137
C    18.57999992   4.69000006  55.59999847
C    19.56999969   4.42999983  54.66999817
C    20.93000031   4.78999996  54.86000061
C    21.90000153   4.63000011  53.82999802
C    23.16999817   5.10999966  54.09999847
C    23.57000160   5.59000015  55.37000275
C    22.69000053   5.66999960  56.43000031
C    21.35000038   5.32000017  56.12999725
C    17.13000107   4.53000021  55.51000214
C    16.42000008   5.03000021  56.63000107
C    15.03999901   5.07999992  56.72000122
C    24.96000099   6.11000013  55.65000153
H    25.44878006   5.47246313  56.38671112
H    20.63999939   6.01000023  58.01000214
H    19.29000092   3.76999998  53.86000061
H    21.52000046   4.48000002  52.83000183
H    23.90000153   4.97000027  53.30999756
H    22.93999863   6.10000038  57.39999771
H    14.52000046   5.47999954  57.57999802
H    25.59000015   6.15999985  54.75000000
H    25.00000000   7.17999983  55.89000320
S    13.99000072   3.58000016  53.11000061
C    11.28999901   4.03999996  53.59000397
C    12.58999920   4.28000021  53.95999908
C    12.90999985   4.65999985  55.30000305
C    11.92999935   4.84000015  56.25000000
C    10.57999992   4.63000011  55.86999893
C     9.52999973   4.67999983  56.84000015
C     8.22000027   4.48999977  56.47999573
C     7.90000010   4.05000019  55.17000198
C     8.89000034   3.94000006  54.22999954
C    10.24000072   4.25000000  54.52999878
C    14.34000015   4.72000027  55.56000137
C    15.00000000   4.13999987  54.45000076
C    16.39000130   4.09000015  54.40000153
C     6.53999996   3.51000023  54.79000092
H     5.84991169   4.27834558  54.44139862
H    10.97000027   3.52999973  52.69000244
H    12.13999939   5.21000004  57.25999832
H     9.94000053   4.81999969  57.83000183
H     7.46999979   4.46000004  57.28000259
H     8.73999977   3.35999990  53.30999756
H    17.00000000   3.72000003  53.57999802
H     6.15999985   2.91000009  55.63000107
H     6.80000019   2.82999992  53.96999741
S    17.56999969   5.84000015  51.84999847
C    20.27000046   5.96000004  51.17000198
C    19.00000000   5.55999994  50.84000015
C    18.63999939   4.78999996  49.68000031
C    19.63999939   4.63000011  48.73000336
C    20.95999908   5.09000015  48.96999741
C    22.01000023   4.92000008  48.02000046
C    23.29999924   5.26000023  48.31999969
C    23.57000160   6.01999998  49.48999786
C    22.56999969   6.35999966  50.37000275
C    21.28000069   5.77000046  50.20000076
C    17.20000076   4.69000006  49.51000214
C    16.46999931   5.19000006  50.61999893
C    15.10000038   5.36999989  50.65000153
C    24.99000168   6.38000011  49.87999725
H    25.40299988   5.86731148  50.74872208
H    20.45999908   6.44000006  52.12999725
H    19.34000015   3.98999977  47.90999985
H    21.73000145   4.48000002  47.05999756
H    24.00000000   5.03999996  47.51999664
H    22.78000069   6.98999977  51.23000336
H    14.70000076   5.75999975  51.58000183
H    25.62999916   6.12999964  49.02999878
H    25.10999870   7.46000004  49.98000336
S    14.01999950   4.32999992  46.95999908
C    11.26000023   4.48000002  47.58999634
C    12.57999992   4.61999989  47.95000076
C    12.96000004   5.03999996  49.27000046
C    11.94000053   5.33999968  50.15999603
C    10.57999992   5.09000015  49.86999893
C     9.52999973   5.15999985  50.83000183
C     8.21000004   4.90999985  50.56000137
C     7.86999989   4.42999983  49.26000214
C     8.85999966   4.30000019  48.31999969
C    10.21999931   4.65000010  48.54999924
C    14.40000057   5.09000015  49.47000122
C    15.10000038   4.57999992  48.34999847
C    16.47999954   4.42999983  48.33000183
C     6.44000006   4.15999985  48.86000061
H     6.12691021   4.72925425  47.98477173
H    10.95999908   3.88999987  46.72000122
H    12.20000076   5.59999990  51.18000031
H     9.80000019   5.60999966  51.77999878
H     7.46000004   5.32999992  51.22000122
H     8.61999989   3.74000025  47.42000198
H    16.90999985   4.09999990  47.38999939
H     5.93999958   4.48999977  49.78000259
H     6.34000015   3.07999992  48.69999695
