96

S    17.18000031   5.44000053  57.81999969
C    19.78999901   5.55000019  57.12999725
C    18.55999947   5.03999996  56.77999878
C    18.12000084   4.69000006  55.45999908
C    19.12999916   4.51999998  54.52999878
C    20.39999962   5.07999992  54.80999756
C    21.47000122   5.03000021  53.87000275
C    22.75000000   5.42000008  54.16999817
C    23.00000000   6.07999992  55.40000153
C    22.03000069   6.19000006  56.37000275
C    20.76000023   5.59999990  56.10000229
C    16.67000008   4.75000000  55.34999847
C    16.00000000   5.19000006  56.52000046
C    14.61999989   5.26000023  56.58000183
C    24.37999916   6.65000010  55.61999893
H    24.83447456   6.11031199  56.45083618
H    19.96999931   6.17999983  57.98999786
H    18.89999962   4.11999989  53.54999924
H    21.19999886   4.53000021  52.94000244
H    23.59999847   5.29999971  53.50999832
H    22.17000008   6.75000000  57.29999924
H    14.11000061   5.33999968  57.54000092
H    25.03000069   6.46000004  54.75999832
H    24.40000153   7.69999981  55.93999863
S    13.43000031   3.94000006  53.01000214
C    10.72000027   3.88000011  53.77999878
C    12.02999973   4.19999981  54.06000137
C    12.46000099   4.53000021  55.38000107
C    11.51000023   4.55999994  56.38999939
C    10.13000011   4.32000017  56.16000366
C     9.06999969   4.57999992  57.06999969
C     7.76999998   4.21999979  56.77999878
C     7.49000025   3.73000002  55.47999954
C     8.45000076   3.47000003  54.52999878
C     9.77000046   3.91999984  54.82999802
C    13.86999989   4.88000011  55.45999908
C    14.55000019   4.51999998  54.26000214
C    15.93000031   4.42000008  54.20000076
C     6.15000010   3.08999991  55.21999741
H     5.56022692   3.58029342  54.44547653
H    10.39000034   3.54999995  52.80000305
H    11.77999973   5.09999990  57.29999924
H     9.35000038   5.03000021  58.02000046
H     6.94000006   4.26000023  57.48000336
H     8.25000000   2.87999988  53.63999939
H    16.43000031   3.94000006  53.36999893
H     5.51000023   3.14000010  56.11000061
H     6.47000027   2.07999992  54.94999695
S    14.39000034   2.21000004  50.20999908
C    11.77000046   1.57000005  50.81999969
C    13.09999943   1.38999999  51.11999893
C    13.55000019   0.59999996  52.22999954
C    12.58999920   0.03000000  53.04000092
C    11.21999931   0.14000000  52.70999908
C    10.24000072  -0.38000000  53.60000229
C     8.89999962  -0.17000002  53.34999847
C     8.48999977   0.50999999  52.16999817
C     9.38000011   1.10000002  51.31000137
C    10.77000046   0.92000002  51.58000183
C    14.96999931   0.85000002  52.43000031
C    15.55999947   1.63000000  51.40999603
C    16.92000008   1.90999997  51.38999939
C     7.03999996   0.88999999  52.00000000
H     6.57167149   0.47843841  51.10591507
H    11.56999969   2.07999992  49.87999725
H    12.93000031  -0.43000001  53.96999741
H    10.57999992  -0.81000000  54.52999878
H     8.15999985  -0.50999999  54.08000183
H     9.02999973   1.80999994  50.56000137
H    17.36999893   2.46000004  50.56999969
H     6.48000002   0.69999999  52.91999817
H     6.98999977   1.99000001  51.91999817
S    18.34000015   0.31000000  54.75000000
C    21.01000023   0.85000002  54.00000000
C    19.67000008   0.86000001  53.69999695
C    19.17000008   1.46000004  52.50000000
C    20.03999901   1.97000003  51.55000305
C    21.42000008   1.98000002  51.84999847
C    22.39999962   2.59000015  51.02000427
C    23.75999832   2.52999997  51.22000122
C    24.21999931   1.97000003  52.44999695
C    23.32999992   1.36000013  53.30999756
C    21.94000053   1.34000003  53.04000092
C    17.71999931   1.38999999  52.41000366
C    17.13999939   0.69000000  53.50000000
C    15.80000019   0.34999999  53.43999863
C    25.63999939   2.26999998  52.84999847
H    25.81040001   2.03570199  53.90079117
H    21.45999908   0.39000002  54.86999893
H    19.62000084   2.45000005  50.66999817
H    22.06999969   3.21000004  50.20000076
H    24.46000099   3.15000010  50.66999817
H    23.68000031   1.13000000  54.31000137
H    15.36999893  -0.24000001  54.25000000
H    25.75000000   3.33999991  52.65999603
H    26.37000084   1.65999997  52.29999924
