96

S    17.38000107   5.33999968  58.30999756
C    20.06000137   5.46000004  57.43000031
C    18.76000023   5.07000017  57.22999954
C    18.35000038   4.50000000  55.97999954
C    19.31999969   4.33999968  55.00999832
C    20.66999817   4.75000000  55.15999603
C    21.65999985   4.48000002  54.18000031
C    22.95999908   4.81999969  54.45000076
C    23.35000038   5.36999989  55.70000076
C    22.42000198   5.61999989  56.68000031
C    21.04000092   5.36000013  56.40999603
C    16.88999939   4.46999979  55.90000153
C    16.20000076   4.86999989  57.06999969
C    14.81999969   5.00999975  57.06999969
C    24.82000160   5.52999973  56.04000092
H    25.24918747   4.84329891  56.76961899
H    20.30999947   5.82999992  58.41999817
H    19.06999969   3.74000025  54.13000107
H    21.25999832   4.11999989  53.22999954
H    23.69999886   4.63000011  53.68000031
H    22.65000153   5.86999989  57.70000076
H    14.21000004   5.26000023  57.93000031
H    25.48999977   5.49000025  55.17000198
H    24.82999992   6.53999996  56.47999573
S    13.71999931   3.98999977  53.36999893
C    11.03000069   3.91999984  54.05000305
C    12.30999947   4.28999996  54.40000153
C    12.64000034   4.77999973  55.70999908
C    11.56000042   4.88000011  56.56999969
C    10.22999954   4.48999977  56.29000092
C     9.22000027   4.73000002  57.27000427
C     7.92000008   4.46000004  56.91999817
C     7.59999990   4.09999990  55.59000015
C     8.56999969   3.94000006  54.62999725
C     9.94000053   4.21999979  54.91000366
C    14.07999992   4.76000023  55.90000153
C    14.78999996   4.36999989  54.72999954
C    16.14999962   4.13000011  54.75999832
C     6.21000004   3.56999993  55.31000137
H     5.70592499   4.20186901  54.57873535
H    10.90999985   3.35999990  53.11999893
H    11.64999962   5.28999996  57.56999969
H     9.42000008   5.09000015  58.27000046
H     7.17999983   4.48999977  57.71999741
H     8.36000061   3.60000014  53.62999725
H    16.73999977   3.68000007  53.96999741
H     5.61999989   3.63000011  56.23000336
H     6.10000038   2.52999997  54.99000168
S    14.17000008   2.03999996  50.44000244
C    11.47999954   1.50999999  51.14999771
C    12.82999992   1.36000013  51.38000107
C    13.27000046   0.64000005  52.54000092
C    12.32999992   0.09999999  53.39000320
C    10.93000031   0.25000000  53.20999908
C     9.96999931  -0.09999999  54.20000076
C     8.64000034   0.07000000  53.88999939
C     8.22000027   0.56000000  52.63000107
C     9.13999939   1.14999998  51.79000092
C    10.52000046   0.88999999  51.98999786
C    14.72000027   0.78000003  52.63999939
C    15.36000061   1.58000004  51.66999817
C    16.72999954   1.81999993  51.59999847
C     6.75000000   0.79999995  52.39999771
H     6.37301254   0.69330549  51.38284683
H    11.05999947   2.05999994  50.31999969
H    12.64000034  -0.50999999  54.22999954
H    10.31000042  -0.37000000  55.20000076
H     7.88999987  -0.14999999  54.64000320
H     8.90999985   1.86000001  50.98999786
H    17.14999962   2.34999990  50.75000000
H     6.11000013   0.17999999  53.04000092
H     6.44999981   1.79000008  52.75000000
S    18.04999924   0.08000001  54.88999939
C    20.76000023   0.39999998  54.19000244
C    19.43000031   0.64999998  53.93000031
C    19.01000023   1.38999999  52.77999878
C    19.96000099   1.94999993  51.95000076
C    21.34000015   1.69000006  52.15999985
C    22.32000160   2.15000010  51.24000168
C    23.64999962   2.02999997  51.53999710
C    24.09000015   1.25000000  52.63999939
C    23.13999939   0.71999997  53.47999954
C    21.75000000   0.93000001  53.30999756
C    17.56000137   1.41000009  52.64999771
C    16.90999985   0.64999998  53.66000366
C    15.54999924   0.34999999  53.68000031
C    25.55999947   1.14999998  53.00000000
H    25.82349396   1.91199493  53.73350906
H    21.04000092  -0.03000000  55.14999771
H    19.63999939   2.50999975  51.07999802
H    22.11999893   2.84000015  50.41999817
H    24.34000015   2.50999975  50.84999847
H    23.45000076   0.25000000  54.40999985
H    15.19000053  -0.13000000  54.59000015
H    26.09000015   1.29999995  52.04999924
H    25.89999962   0.14999999  53.30999756
