96

S    17.35999870   5.50000000  58.00000000
C    20.03000069   5.82000017  57.25999832
C    18.78000069   5.32999992  56.95000076
C    18.46999931   4.76000023  55.68000031
C    19.45999908   4.65999985  54.71000290
C    20.78000069   5.05000019  55.05000305
C    21.87000084   4.72000027  54.20000076
C    23.19000053   5.01999950  54.43000031
C    23.43000031   5.78000021  55.61000061
C    22.40999985   6.14000034  56.45999908
C    21.07000160   5.69999981  56.30000305
C    17.02999878   4.61000013  55.48999786
C    16.31999969   4.98000002  56.65999985
C    14.93000031   5.03000021  56.73999786
C    24.86000061   6.12999964  55.93999863
H    25.30743980   5.49790239  56.70703888
H    20.07999802   6.30000019  58.22999954
H    19.23999977   4.18000031  53.75999832
H    21.64999962   4.09000015  53.34000015
H    24.00000000   4.61000013  53.81999969
H    22.67000008   6.65999985  57.37999725
H    14.53999996   5.31000042  57.71999741
H    25.42000008   6.06999969  55.00000000
H    24.79999924   7.17999983  56.26999664
S    13.82999992   3.84999990  53.11999893
C    11.10999966   3.84000015  53.76999664
C    12.38999939   4.21999979  54.09000015
C    12.74000072   4.74000025  55.37000275
C    11.73999977   4.92000008  56.31000137
C    10.38000011   4.65999985  56.03000259
C     9.25000000   4.88999987  56.86999893
C     7.96999979   4.59000015  56.45999908
C     7.75000000   4.01999998  55.18000031
C     8.78999996   3.73000002  54.34000015
C    10.10000038   4.13999987  54.72000122
C    14.18000031   4.69000006  55.61000061
C    14.91000080   4.23999977  54.47999954
C    16.28999901   4.23000002  54.36999893
C     6.38000011   3.47000003  54.82999802
H     5.81944704   3.99507499  54.05657959
H    10.88000107   3.19000006  52.91999817
H    11.92000008   5.32000017  57.30999756
H     9.48000050   5.26999998  57.85999680
H     7.18999958   4.56999969  57.22000122
H     8.75000000   3.01999998  53.52000427
H    16.79000092   3.98000002  53.43999863
H     5.79999971   3.45999980  55.75000000
H     6.52999973   2.46000004  54.41999817
S    13.89999962   1.72000003  50.20000076
C    11.16000080   1.22000003  50.93000031
C    12.51000023   1.16999996  51.16000366
C    12.98999977   0.64000005  52.41000366
C    12.10000038   0.14000000  53.34000015
C    10.72000027   0.28000000  53.11000061
C     9.82999992  -0.34000003  54.03999710
C     8.47000027  -0.25999999  53.89999771
C     7.94000053   0.27000001  52.69000244
C     8.76999950   0.82000005  51.73999786
C    10.19000053   0.82999998  51.88999939
C    14.44000053   0.71000004  52.51999664
C    15.11000061   1.35000002  51.45000076
C    16.43000031   1.76999998  51.33999634
C     6.48999977  -0.00000000  52.36000061
H     6.24804163  -0.14232841  51.30676651
H    10.81999969   1.46000004  49.92000198
H    12.43000031  -0.31000000  54.27999878
H    10.27999973  -0.69000000  54.97000122
H     7.82999992  -0.71999997  54.62999725
H     8.39999962   0.97000003  50.72999954
H    16.80999947   2.25000000  50.45000076
H     6.21999979  -0.96000004  52.81999969
H     5.84999990   0.82000005  52.72999573
S    17.65999985   0.62000000  55.00000000
C    20.35000038   1.01999998  54.34000015
C    19.03000069   1.19999993  54.02000046
C    18.60000038   1.66999996  52.74000168
C    19.55000114   2.24000001  51.90999985
C    20.92000008   2.07999992  52.21000290
C    21.88999939   2.40999985  51.20999908
C    23.23999786   2.32999992  51.43000031
C    23.65999985   1.71000004  52.63999939
C    22.75000000   1.30999994  53.60000229
C    21.35000038   1.48000002  53.44999695
C    17.20000076   1.41000009  52.44999695
C    16.59000015   0.82000005  53.59000397
C    15.26000023   0.43000001  53.61999893
C    25.13999939   1.47000003  52.80000305
H    25.61087990   1.83386254  53.71322632
H    20.65000153   0.48000002  55.24000168
H    19.27999878   2.73999977  50.97999954
H    21.42999840   2.82999992  50.31999969
H    24.03000069   2.69000006  50.77999878
H    23.05000114   0.79000002  54.50000000
H    14.88999939  -0.09999999  54.50000000
H    25.62999916   1.81999993  51.88000107
H    25.19000053   0.37000000  52.78999710
