96

S    17.39999962   5.59999990  57.65999603
C    20.15000153   5.49000025  56.93999863
C    18.82999992   5.15999985  56.70000076
C    18.43000031   4.57999992  55.45000076
C    19.45000076   4.30000019  54.55999756
C    20.81000137   4.55000019  54.84000397
C    21.86000061   4.33999968  53.88999939
C    23.15999985   4.71000004  54.10999680
C    23.47999954   5.31000042  55.34999847
C    22.56999969   5.53999996  56.36000061
C    21.21999931   5.18000031  56.06999969
C    16.97999954   4.53999996  55.31999969
C    16.26000023   5.03000021  56.43000031
C    14.86999989   5.05999994  56.49000168
C    24.73999977   6.12999964  55.52000046
H    25.37279510   5.71050596  56.30210876
H    20.38000107   5.97000027  57.88999939
H    19.13999939   3.84000015  53.62999725
H    21.57999992   3.91000009  52.93000031
H    23.92000008   4.77999973  53.33000183
H    22.77000046   6.05999994  57.29000092
H    14.32000065   5.40000010  57.36000061
H    25.22999954   6.03999996  54.54999924
H    24.48999786   7.18999958  55.72000122
S    13.75000000   3.74000025  52.91999817
C    11.05000019   3.58000016  53.69999695
C    12.35000038   3.89999986  54.00000000
C    12.69000053   4.48999977  55.26000214
C    11.69999981   4.72000027  56.19999695
C    10.36000061   4.42999983  55.86999893
C     9.34000015   4.61999989  56.84000015
C     8.02999973   4.30000019  56.56999969
C     7.67000008   3.65000010  55.35999680
C     8.64999962   3.42000008  54.40999985
C     9.98000050   3.86999989  54.59999847
C    14.13000011   4.65999985  55.37000275
C    14.85000038   4.23000002  54.22999954
C    16.22999954   4.07999992  54.22000122
C     6.30999994   3.03999996  55.10000229
H     5.72397470   3.59029222  54.36389542
H    10.82999992   3.14000010  52.72999573
H    11.94000053   5.10999966  57.18999863
H     9.56999969   4.73000002  57.88999939
H     7.34000015   4.30999994  57.41000366
H     8.36000061   2.87999988  53.52000427
H    16.72000122   3.81999993  53.29000092
H     5.77000046   3.03999996  56.05999756
H     6.42000008   2.01999998  54.72999954
S    17.92000008   5.82999992  51.91999817
C    20.59000015   5.72000027  51.20999908
C    19.29000092   5.46000004  50.84999847
C    18.89999962   4.96000004  49.55999756
C    19.88999939   4.69999981  48.62999725
C    21.19999886   5.15999985  48.88999939
C    22.26000023   5.00999975  47.95000076
C    23.59000015   5.27999973  48.18000031
C    23.92000008   5.78999996  49.45999908
C    22.95999908   5.82000017  50.45000076
C    21.57999992   5.55999994  50.21999741
C    17.46000099   4.78999996  49.47000122
C    16.82999992   5.40000010  50.59000015
C    15.44999981   5.50000000  50.68999863
C    25.34000015   6.28000021  49.65000153
H    25.78881454   5.77419281  50.50488281
H    20.72000122   6.23000050  52.16999817
H    19.59000015   4.21999979  47.70000076
H    21.86000061   4.51000023  47.06999969
H    24.28999901   4.90999985  47.43999863
H    23.21000099   6.10000038  51.46999741
H    14.96999931   5.93999958  51.56000137
H    25.93000031   6.12999964  48.74000168
H    25.34000015   7.36999989  49.81999969
S    14.23999977   4.13000011  47.15000153
C    11.59000015   4.25000000  47.88000107
C    12.88000011   4.65000010  48.15999985
C    13.23999977   5.19999981  49.43000031
C    12.20999908   5.42000008  50.33000183
C    10.86999989   5.03999996  50.08999634
C     9.77000046   5.17000008  50.98999786
C     8.48999977   4.78999996  50.68999863
C     8.21000004   4.15999985  49.45000076
C     9.23999977   3.97000027  48.54999924
C    10.54999924   4.46000004  48.81999969
C    14.68999958   5.13999987  49.56999969
C    15.34999943   4.55000019  48.47000122
C    16.72000122   4.30999994  48.37999725
C     6.89000034   3.45000005  49.25000000
H     6.31344604   4.04079008  48.53820419
H    11.26000023   3.67000008  47.02000046
H    12.51000023   5.65999985  51.33999634
H    10.03000069   5.40000010  52.02000046
H     7.77999973   4.55999994  51.49000168
H     8.92000008   3.63000011  47.56999969
H    17.23999977   4.01999998  47.47000122
H     6.37000036   3.31999993  50.20999908
H     7.00000000   2.39999986  48.93000031
