96

S    17.48999977   5.32000017  57.84999847
C    20.13999939   5.32000017  57.21000290
C    18.86999893   4.99000025  56.79999924
C    18.47999954   4.72000027  55.45000076
C    19.54000092   4.50000000  54.58000183
C    20.88000107   4.67999983  55.00000000
C    21.98999786   4.61000013  54.12000275
C    23.29000092   4.86999989  54.50000000
C    23.59999847   5.42999983  55.76000214
C    22.55000114   5.55999994  56.63999939
C    21.22999954   5.13999987  56.31999969
C    17.02999878   4.65999985  55.30000305
C    16.38000107   5.05000019  56.49000168
C    15.03000069   4.77999973  56.72000122
C    24.96000099   6.03999996  56.00000000
H    25.46382904   5.45101547  56.76639175
H    20.34000015   5.78000021  58.18000031
H    19.31999969   4.26999998  53.54000092
H    21.77999878   4.41000032  53.06999969
H    24.09000015   4.67999983  53.77999878
H    22.65999985   6.05999994  57.60000229
H    14.56999969   5.00000000  57.68000031
H    25.53999901   6.09000015  55.06999969
H    24.90999985   7.04999971  56.43000031
S    13.81000042   4.11000013  52.98999786
C    11.10999966   4.28000021  53.61000061
C    12.41000080   4.44000006  54.02000046
C    12.79999924   4.69000006  55.38000107
C    11.77999973   4.88999987  56.29000092
C    10.44000053   4.67999983  55.90000153
C     9.35999966   4.92000008  56.79999924
C     8.05000019   4.69999981  56.46999741
C     7.65999985   4.15000010  55.21999741
C     8.67999935   4.07000017  54.29000092
C    10.06000042   4.32999992  54.55999756
C    14.22999954   4.55000019  55.59000015
C    14.91000080   4.41000032  54.34999847
C    16.28000069   4.23999977  54.20000076
C     6.24000025   3.75999975  54.87999725
H     5.74405384   4.38347530  54.13607788
H    10.85000038   3.76999998  52.69000244
H    12.10999966   5.21000004  57.28000259
H     9.63999939   5.12000036  57.83000183
H     7.28999996   4.75000000  57.23999786
H     8.36999989   3.88999987  53.27000046
H    16.73999977   3.84999990  53.29999924
H     5.69000006   3.67000008  55.81999969
H     6.24000025   2.72000027  54.54000092
S    14.32000065   2.17999983  50.11000061
C    11.65999985   1.38000000  50.68000031
C    12.97000027   1.57000005  51.06999969
C    13.36999989   0.88999999  52.27000427
C    12.44999981   0.35999998  53.16999817
C    11.06999969   0.43000001  52.90000153
C    10.07999992  -0.02000000  53.81999969
C     8.75000000   0.13000000  53.47999954
C     8.36999989   0.65999997  52.22000122
C     9.30999947   1.18000007  51.36000061
C    10.70000076   1.04999995  51.65999985
C    14.80999947   0.97999996  52.43000031
C    15.46000004   1.66999996  51.37000275
C    16.79000092   2.05999994  51.37000275
C     6.93000031   1.08000004  52.01000214
H     6.47625732   0.58371902  51.15214157
H    11.36000061   1.70000005  49.68000031
H    12.77999973  -0.09999999  54.09999847
H    10.47000027  -0.46999997  54.72999954
H     8.07999992   0.11000000  54.33000183
H     9.03999996   1.72999990  50.45999908
H    17.28000069   2.59999990  50.56000137
H     6.40999985   0.85000002  52.94000244
H     6.84000015   2.17999983  51.93999863
S    18.15999985   0.28999999  54.68000031
C    20.81000137   0.79999995  54.05000305
C    19.48999977   1.00999999  53.74000168
C    19.03000069   1.65999997  52.55000305
C    19.97999954   2.21000004  51.70999908
C    21.35999870   2.09000015  52.00000000
C    22.36000061   2.59000015  51.11000061
C    23.69999886   2.52999997  51.39999771
C    24.07999992   1.87000012  52.60000229
C    23.16999817   1.22000003  53.39000320
C    21.77000046   1.42000008  53.20000076
C    17.57999992   1.63000000  52.43999863
C    16.98999977   0.85000002  53.47000122
C    15.62999916   0.56999999  53.48999786
C    25.53999901   1.50999999  52.74000168
H    25.85966110   1.70890033  53.76291656
H    21.07000160   0.07000000  54.80999756
H    19.61000061   2.68000007  50.79999924
H    22.01999855   3.07999992  50.20999908
H    24.40999985   2.84000015  50.63999939
H    23.57999992   0.62000000  54.20000076
H    15.18000031   0.11000000  54.36999893
H    26.18999863   2.07999992  52.04999924
H    25.66999817   0.43000001  52.60000229
