96

S    17.40999985   9.11999989  58.70999908
C    20.05000114   9.26999950  57.94000244
C    18.76000023   8.96000004  57.56999969
C    18.39999962   8.30000019  56.36000061
C    19.40999985   7.97999954  55.47000122
C    20.75000000   8.28999996  55.77000046
C    21.78999901   7.92000008  54.86999893
C    23.05000114   8.39999962  55.12000275
C    23.34000015   9.11999989  56.31000137
C    22.37999916   9.47000027  57.22999954
C    21.04999924   9.02999973  56.97000122
C    16.95000076   8.22000027  56.26999664
C    16.26000023   8.64999962  57.43999863
C    14.88000011   8.75000000  57.49000168
C    24.77000046   9.44000053  56.66999817
H    25.26873398   8.84151840  57.43235397
H    20.17999840   9.64999962  58.95000076
H    19.12999916   7.79999971  54.43000031
H    21.54999924   7.32999992  53.99000168
H    23.92000008   8.17000008  54.50000000
H    22.69000053  10.06000042  58.09000015
H    14.46000004   9.17000008  58.40000153
H    25.48999977   9.35000038  55.84999847
H    24.87999916  10.48999977  56.97999954
S    13.73000050   7.40999985  53.92000198
C    11.00999928   7.51999950  54.52000046
C    12.30000019   7.81000042  54.88999939
C    12.68000031   8.39999962  56.13999939
C    11.69000053   8.56000042  57.09000015
C    10.34999943   8.23000050  56.77999878
C     9.30999947   8.43000031  57.74000168
C     7.99000025   8.19000053  57.43999863
C     7.64999962   7.51999950  56.23000336
C     8.61999989   7.42999983  55.26000214
C     9.98999977   7.71000004  55.48999786
C    14.11999893   8.36000061  56.38000107
C    14.80999947   7.94000053  55.21999741
C    16.20000076   7.90000010  55.13000107
C     6.26999950   6.91999960  56.03000259
H     5.76358795   7.40501404  55.19549179
H    10.69000053   7.18999958  53.53000259
H    11.82000065   8.80000019  58.13999939
H     9.59000015   8.57999992  58.77999878
H     7.23000002   8.27000046  58.20000076
H     8.30999947   7.05999947  54.29000092
H    16.73999977   7.57999992  54.23999786
H     5.68000031   6.86999989  56.95000076
H     6.35999966   5.84000015  55.90000153
S    13.68999958   5.40000010  50.87999725
C    11.05999947   5.07999992  51.53999710
C    12.35999966   4.77999973  51.88000107
C    12.82999992   4.19000006  53.09999847
C    11.84999943   3.81999993  54.00000000
C    10.47999954   3.95000005  53.68000031
C     9.48000050   3.30000019  54.47000122
C     8.14000034   3.32999992  54.16999817
C     7.75000000   4.09999990  53.04999924
C     8.69999981   4.61000013  52.18999863
C    10.08999920   4.65000010  52.48000336
C    14.27999973   4.28999996  53.20999908
C    14.88000011   5.00000000  52.14000320
C    16.22999954   5.32999992  52.16999817
C     6.30000019   4.44999981  52.80000305
H     5.97114086   3.97100925  51.87776566
H    10.84000015   5.45000029  50.54000092
H    12.18000031   3.21000004  54.82999802
H     9.73999977   2.82000017  55.40999985
H     7.46000004   2.86999989  54.87999725
H     8.34000015   5.07999992  51.27999878
H    16.63999939   5.82999992  51.30000305
H     5.78999996   3.98999977  53.66000366
H     6.26999950   5.55000019  52.78999710
S    17.64999962   3.84000015  55.52000046
C    20.30999947   4.25000000  54.84000397
C    18.98999977   4.51000023  54.55999756
C    18.53999901   5.05999994  53.31999969
C    19.40999985   5.45000029  52.31999969
C    20.79000092   5.38999987  52.62000275
C    21.70000076   5.86000013  51.62000275
C    23.02999878   5.80999947  51.97000122
C    23.48999977   5.14999962  53.15000153
C    22.59000015   4.59999990  54.02999878
C    21.18000031   4.76999998  53.85000229
C    17.09000015   4.96000004  53.20999908
C    16.46000099   4.26999998  54.27999878
C    15.11000061   3.91999984  54.27000046
C    24.97999954   4.99000025  53.31999969
H    25.37682343   5.12463713  54.32623291
H    20.66999817   3.63000011  55.65999985
H    19.02000046   5.88999987  51.40999603
H    21.31999969   6.35999966  50.73999786
H    23.71000099   6.28999996  51.26999664
H    22.96999931   4.07999992  54.91000366
H    14.63999939   3.28999996  55.01999664
H    25.52999878   5.73999977  52.74000168
H    25.29000092   4.01999998  52.90999985
