96

S    17.60000038   8.27000046  59.18000031
C    20.35000038   8.30999947  58.66000366
C    19.06999969   8.07999992  58.22000122
C    18.72999954   7.73000002  56.86999893
C    19.78000069   7.63999987  55.97999954
C    21.12999916   7.88999987  56.31999969
C    22.19000053   7.73999977  55.38000107
C    23.47999954   8.05999947  55.72999954
C    23.75000000   8.55000019  57.04000092
C    22.72999954   8.64999962  57.95999908
C    21.38999939   8.25000000  57.69000244
C    17.29999924   7.63999987  56.60999680
C    16.55999947   7.92999983  57.77999878
C    15.19000053   8.14999962  57.77999878
C    25.09000015   9.17000008  57.36000061
H    25.59524536   8.42280579  57.97198868
H    20.45999908   8.69000053  59.66999817
H    19.68000031   7.40999985  54.92000198
H    21.94000053   7.60999966  54.33000183
H    24.23999977   8.13000011  54.95999908
H    22.90999985   9.10000038  58.93000031
H    14.68000031   8.59000015  58.62999725
H    25.65999985   9.30999947  56.44000244
H    24.93999863  10.14999962  57.83000183
S    14.15999985   7.30999994  54.01000214
C    11.39999962   7.31999969  54.61999893
C    12.69999981   7.57999992  54.98000336
C    13.09000015   7.86999989  56.32999802
C    12.10999966   8.18000031  57.25999832
C    10.75000000   8.01000023  56.93000031
C     9.76000023   8.09000015  57.95000076
C     8.45000076   7.69999981  57.72999573
C     8.14000034   7.07999992  56.49000168
C     9.09000015   6.98999977  55.50000000
C    10.42000008   7.48000050  55.63000107
C    14.52999973   7.88000011  56.58000183
C    15.24000072   7.51999950  55.40000153
C    16.61999893   7.32999992  55.41999817
C     6.76999998   6.57000017  56.11000061
H     6.23527431   7.34000444  55.55388641
H    11.07999992   6.78999996  53.73000336
H    12.43000031   8.63000011  58.20000076
H    10.07999992   8.47000027  58.92000198
H     7.76999998   7.63999987  58.56999969
H     8.82000065   6.50000000  54.56999969
H    17.21999931   7.14999962  54.52999878
H     6.19999981   6.30999994  57.01000214
H     6.93000031   5.60999966  55.59999847
S    17.35000038   9.10000038  52.55000305
C    20.06000137   9.01000023  51.95000076
C    18.78000069   8.71999931  51.56000137
C    18.42000008   8.17000008  50.28999710
C    19.43000031   7.95000029  49.36999893
C    20.72000122   8.46000004  49.65000153
C    21.84000015   8.27000046  48.79000092
C    23.13999939   8.48999977  49.19000244
C    23.44000053   9.02999973  50.47000122
C    22.40999985   9.22999954  51.35000229
C    21.07999992   8.89000034  50.97999954
C    16.97000122   8.11999989  50.10000229
C    16.27000046   8.59000015  51.24000168
C    14.91000080   8.90999985  51.17000198
C    24.84000015   9.48999977  50.79999924
H    25.32336235   8.84314919  51.53215027
H    20.30999947   9.35000038  52.95999908
H    19.22999954   7.39000034  48.46000290
H    21.61999893   7.90000010  47.80000305
H    23.95999908   8.42000008  48.47999954
H    22.65000153   9.52000046  52.36999893
H    14.47000027   9.46000004  52.00000000
H    25.48000145   9.65999985  49.93000031
H    24.77999878  10.47000027  51.29000092
S    13.71000099   7.64999962  47.65999603
C    11.02000046   7.39000034  48.46000290
C    12.30000019   7.83999968  48.70999908
C    12.74000072   8.38000011  49.95999908
C    11.78999996   8.52000046  50.96000290
C    10.47000027   8.05000019  50.79000092
C     9.44000053   8.26000023  51.75000000
C     8.09000015   8.07999992  51.55000305
C     7.71000004   7.60999966  50.27000046
C     8.67999935   7.27999973  49.34000015
C    10.06999969   7.50000000  49.51000214
C    14.18000031   8.53999996  50.04000092
C    14.88999939   7.99000025  48.94000244
C    16.25000000   7.73999977  48.95999908
C     6.25999975   7.50999975  49.86000061
H     6.06834173   7.85782433  48.84492111
H    10.71000004   7.00999975  47.49000168
H    12.02999973   8.97000027  51.91999817
H     9.76000023   8.75000000  52.67000198
H     7.30000019   8.22000027  52.27000427
H     8.28999996   7.00000000  48.36999893
H    16.70999908   7.26999998  48.09000015
H     5.72000027   8.21000004  50.51000214
H     5.88000011   6.48999977  49.93999863
