96

S    16.94000053   8.52999973  58.48999786
C    19.65999985   8.53999996  57.85999680
C    18.38000107   8.13000011  57.54000092
C    18.02000046   7.53000021  56.29000092
C    19.00000000   7.42999983  55.31000137
C    20.34000015   7.82999992  55.56000137
C    21.38999939   7.81000042  54.59999847
C    22.67000008   8.10000038  55.00999832
C    22.95999908   8.67000008  56.27999878
C    21.93000031   8.90999985  57.15000153
C    20.62000084   8.45000076  56.83000183
C    16.59000015   7.63999987  56.05999756
C    15.82999992   8.11999989  57.15999985
C    14.45000076   8.19000053  57.25000000
C    24.38999939   9.03999996  56.59999847
H    24.77454185   8.41333866  57.40468597
H    19.79999924   9.02000046  58.82999802
H    18.54999924   7.07999992  54.38999939
H    21.25999832   7.53000021  53.55999756
H    23.42000008   7.96000004  54.22999954
H    21.96000099   9.17000008  58.20999908
H    13.94000053   8.42000008  58.18999863
H    24.92000198   8.88000011  55.65000153
H    24.48999786  10.06000042  56.98999786
S    13.40000057   6.85999966  53.64999771
C    10.65999985   6.91999960  54.36000061
C    11.97999954   7.16000032  54.66999817
C    12.25000000   7.59999990  56.00000000
C    11.28000069   7.85000038  56.95999908
C     9.92999935   7.49000025  56.69000244
C     8.88000011   7.53000021  57.64999771
C     7.59000015   7.27999973  57.25999832
C     7.30000019   6.80000019  55.94999695
C     8.30999947   6.71000004  55.01999664
C     9.64999962   7.05999947  55.34999847
C    13.68999958   7.75000000  56.17000198
C    14.42000008   7.34000015  55.01999664
C    15.80000019   7.28999996  54.94999695
C     5.86000013   6.52999973  55.56000137
H     5.50360870   7.11448193  54.71178818
H    10.36000061   6.48999977  53.40999985
H    11.51999950   8.07999992  57.98999786
H     9.13000011   7.77999973  58.68000031
H     6.80000019   7.44000006  57.98999786
H     8.07999992   6.32000017  54.03999710
H    16.23999977   6.85999966  54.06000137
H     5.32000017   6.80000019  56.47999573
H     5.72000027   5.46000004  55.40000153
S    13.50000000   5.00999975  50.66999817
C    10.88999939   4.50000000  51.43000031
C    12.23000050   4.33999968  51.70999908
C    12.69999981   3.77999997  52.94000244
C    11.79999924   3.32999992  53.88000107
C    10.40999985   3.51000023  53.67000198
C     9.47000027   3.02999997  54.61999893
C     8.11999989   3.07999992  54.33000183
C     7.63999987   3.63999987  53.13000107
C     8.56000042   4.15000010  52.23999786
C     9.96999931   4.09999990  52.43000031
C    14.15999985   3.86000013  52.95999908
C    14.73999977   4.48999977  51.83000183
C    16.06999969   4.88000011  51.83000183
C     6.17000008   3.45999980  52.81999969
H     5.89846754   3.69580436  51.79103470
H    10.59000015   4.90999985  50.47000122
H    12.09000015   2.73000002  54.73999786
H     9.77000046   2.64999986  55.59000015
H     7.53000021   2.51999998  55.05000305
H     8.18000031   4.61999989  51.33999634
H    16.54999924   5.45000029  51.04000092
H     5.96000004   2.39999986  53.02000046
H     5.55999994   4.05000019  53.50999832
S    17.50000000   3.53999996  55.25000000
C    20.17999840   3.98999977  54.62999725
C    18.86000061   4.19999981  54.31000137
C    18.35000038   4.69999981  53.06999969
C    19.18000031   5.26000023  52.11999893
C    20.55000114   5.26000023  52.49000168
C    21.47999954   5.88000011  51.60999680
C    22.81999969   5.92999983  51.90999985
C    23.29000092   5.31000042  53.09999847
C    22.43999863   4.56999969  53.88999939
C    21.04000092   4.61000013  53.68000031
C    16.90999985   4.55000019  52.90000153
C    16.28999901   3.91999984  54.01000214
C    14.93999958   3.60000014  54.09000015
C    24.76000023   5.52999973  53.36999893
H    25.20151138   4.89621878  54.13908386
H    20.50000000   3.42999983  55.50000000
H    18.86000061   5.63000011  51.14999771
H    21.04999924   6.32999992  50.70999908
H    23.47999954   6.47000027  51.25000000
H    22.79999924   4.13999987  54.81999969
H    14.60000038   3.07000017  54.98000336
H    24.89999962   6.58999968  53.60000229
H    25.22000122   5.33999968  52.37999725
