96

S    17.21999931   8.80999947  58.92000198
C    19.96999931   8.97000027  58.22999954
C    18.68000031   8.59000015  57.94000244
C    18.40999985   7.90000010  56.70999908
C    19.37999916   7.67000008  55.75000000
C    20.71000099   8.09000015  55.98999786
C    21.76000214   7.78999996  55.07999802
C    23.05000114   8.19999981  55.31000137
C    23.25000000   8.93000031  56.52000046
C    22.30999947   9.13999939  57.50000000
C    20.95999908   8.76000023  57.22999954
C    16.97000122   7.79999971  56.50000000
C    16.18000031   8.25000000  57.58999634
C    14.80000019   8.38000011  57.51999664
C    24.64999962   9.43000031  56.77000046
H    25.11031723   8.77139282  57.50650787
H    20.26000023   9.53999996  59.10999680
H    19.17000008   6.98999977  54.93000031
H    21.42999840   7.36999989  54.13000107
H    23.85000038   8.11999989  54.58000183
H    22.50999832   9.67000008  58.43000031
H    14.13000011   8.67000008  58.33000183
H    25.15999985   9.47000027  55.79999924
H    24.48999786  10.44999981  57.14000320
S    13.82999992   7.23000002  53.88000107
C    11.11999989   6.94000006  54.40999985
C    12.35000038   7.37999964  54.84000397
C    12.71000004   7.92000008  56.11999893
C    11.65999985   8.02999973  57.02000046
C    10.34000015   7.64999962  56.66999817
C     9.17000008   7.97999954  57.42000198
C     7.88999987   7.73000002  57.00000000
C     7.63999987   7.35000038  55.65999985
C     8.73999977   7.03999996  54.89999771
C    10.07999992   7.09999990  55.37000275
C    14.14000034   7.99000025  56.35000229
C    14.92000008   7.59999990  55.22999573
C    16.31000137   7.63000011  55.27999878
C     6.25999975   6.86999989  55.26000214
H     5.71014500   7.49126482  54.55304337
H    11.00000000   6.63000011  53.37999725
H    11.84000015   8.26000023  58.06000137
H     9.32999992   8.39999962  58.40999985
H     7.11000013   7.69999981  57.76000214
H     8.65999985   6.81999969  53.82999802
H    16.98999977   7.46000004  54.45999908
H     5.75999975   6.80000019  56.23000336
H     6.15000010   5.80999947  55.00000000
S    13.55999947   5.00000000  50.97000122
C    10.90999985   4.84000015  51.69000244
C    12.20999908   4.59999990  52.04999924
C    12.65999985   4.01999998  53.27999878
C    11.67000008   3.70000005  54.19000244
C    10.31000042   3.79999995  53.82999802
C     9.28999996   3.35000014  54.71000290
C     7.96999979   3.51999998  54.36999893
C     7.55999994   4.07000017  53.11999893
C     8.52999973   4.53000021  52.25999832
C     9.90999985   4.46000004  52.62000275
C    14.11999893   4.00999975  53.34000015
C    14.75999928   4.59000015  52.21000290
C    16.10000038   4.96000004  52.18000031
C     6.09000015   4.19999981  52.78999710
H     5.71160841   3.77163196  51.86186981
H    10.64000034   5.19000006  50.68999863
H    11.90000057   3.26999998  55.17000198
H     9.55000019   2.79000020  55.61000061
H     7.22000027   3.08999991  55.01999664
H     8.32999992   4.94999981  51.27999878
H    16.52000046   5.51999998  51.35000229
H     5.55999994   3.74000025  53.62999725
H     5.96000004   5.28999996  52.76000214
S    17.47999954   3.63000011  55.61999893
C    20.17000008   4.13999987  55.02999878
C    18.85000038   4.26000023  54.68000031
C    18.35000038   4.80999994  53.46000290
C    19.29000092   5.23000002  52.54000092
C    20.68000031   5.05999994  52.77999878
C    21.67000008   5.23000002  51.77999878
C    23.00000000   4.90000010  51.95000076
C    23.45000076   4.55000019  53.25000000
C    22.50000000   4.28000021  54.20999908
C    21.11000061   4.53999996  54.05000305
C    16.90999985   4.69999981  53.29999924
C    16.27000046   4.07999992  54.40000153
C    14.92000008   3.73000002  54.43999863
C    24.89999962   4.28000021  53.54999924
H    25.27556610   4.80437374  54.42868042
H    20.50000000   3.73000002  55.98999786
H    18.95000076   5.65000010  51.59999847
H    21.38000107   5.31000042  50.72999954
H    23.61999893   4.86000013  51.05999756
H    22.73999977   3.78999996  55.14999771
H    14.40999985   3.35000014  55.31999969
H    25.59000015   4.55999994  52.74000168
H    25.10999870   3.22000003  53.75999832
