96

S    16.94000053   8.64999962  58.63999939
C    19.60000038   8.51000023  57.95000076
C    18.30000114   8.23999977  57.57999802
C    17.89999962   7.64999962  56.33999634
C    18.94000053   7.36999989  55.48999786
C    20.29000092   7.68000031  55.79999924
C    21.21999931   7.42999983  54.75999832
C    22.56000137   7.57999992  55.02999878
C    22.95000076   8.28999996  56.19999695
C    22.04999924   8.56000042  57.19999695
C    20.68000031   8.19000053  57.09000015
C    16.45000076   7.53999996  56.23000336
C    15.81999969   8.10000038  57.36999893
C    14.44000053   8.19000053  57.43000031
C    24.41999817   8.52999973  56.44000244
H    24.79513741   7.85758209  57.21150970
H    19.70999908   9.10000038  58.86000061
H    18.77000046   6.98999977  54.47999954
H    20.88000107   6.89000034  53.88000107
H    23.35000038   7.04999971  54.48999786
H    22.27000046   9.15999985  58.08000183
H    13.93000031   8.56000042  58.31999969
H    25.02000046   8.50000000  55.52000046
H    24.37999916   9.56999969  56.76000214
S    13.17000008   6.93000031  53.86000061
C    10.50000000   7.07000017  54.75999832
C    11.82999992   7.36999989  54.93999863
C    12.27000046   7.82000017  56.23000336
C    11.38000011   8.11999989  57.25000000
C    10.01000023   7.82000017  57.02000046
C     9.06000042   8.01999950  58.06000137
C     7.73000002   7.76999998  57.83000183
C     7.23000002   7.35000038  56.56000137
C     8.13000011   7.09999990  55.56000137
C     9.52999973   7.31999969  55.76000214
C    13.71999931   7.78999996  56.30000305
C    14.34999943   7.32999992  55.12000275
C    15.71000004   7.03000021  55.14999771
C     5.78999996   7.00000000  56.27999878
H     5.49872828   7.52570963  55.37066269
H    10.19000053   6.56000042  53.85000229
H    11.84000015   8.42000008  58.18999863
H     9.43000031   8.30999947  59.03999710
H     7.07000017   7.82000017  58.68999863
H     7.82000017   6.67999983  54.61000061
H    16.25000000   6.38999987  54.45999908
H     5.13000011   7.26000023  57.11000061
H     5.59000015   5.97000027  55.97000122
S    17.28999901   8.85999966  52.50999832
C    19.97999954   8.59000015  51.93999863
C    18.68999863   8.28999996  51.58000183
C    18.31999969   7.88000011  50.26000214
C    19.29999924   7.67000008  49.31000137
C    20.65999985   7.77999973  49.69999695
C    21.68000031   7.72000027  48.70999908
C    22.96999931   8.00000000  49.08000183
C    23.29000092   8.47999954  50.38000107
C    22.32999992   8.71000004  51.32999802
C    21.01000023   8.30000019  51.00000000
C    16.87000084   7.78999996  50.15999603
C    16.15999985   8.23000050  51.30000305
C    14.77000046   8.34999943  51.37000275
C    24.73999977   8.82000065  50.65000153
H    25.04586983   8.42165852  51.61740494
H    20.17000008   9.09000015  52.88000107
H    19.11000061   7.53000021  48.25000000
H    21.40999985   7.46000004  47.69000244
H    23.78000069   7.86999989  48.36000061
H    22.52000046   9.04999924  52.35000229
H    14.22999954   8.60000038  52.28000259
H    25.36000061   8.40999985  49.85000229
H    24.90999985   9.90999985  50.72000122
S    13.60000038   7.37999964  47.72999573
C    10.95000076   7.60999966  48.39000320
C    12.25000000   7.78999996  48.80000305
C    12.60000038   8.01999950  50.17000198
C    11.63000011   8.25000000  51.12999725
C    10.29999924   8.05999947  50.72000122
C     9.26000023   8.25000000  51.68000031
C     7.99000025   7.85000038  51.37000275
C     7.57999992   7.57999992  50.04000092
C     8.56000042   7.55000019  49.06999969
C     9.94000053   7.63000011  49.38999939
C    14.04999924   7.88000011  50.27000046
C    14.73999977   7.51999950  49.09000015
C    16.11999893   7.40999985  49.03999710
C     6.12999964   7.23000002  49.82999802
H     5.68213081   7.78450441  49.00535202
H    10.77999973   7.26999998  47.36999893
H    11.97000027   8.47999954  52.14000320
H     9.44999981   8.50000000  52.71999741
H     7.34000015   7.86999989  52.25000000
H     8.23000050   7.40000010  48.04000092
H    16.52000046   7.07999992  48.08000183
H     5.53999996   7.31999969  50.75000000
H     5.98000002   6.19000006  49.52000046
