96

S    16.98999977   8.42000008  58.82999802
C    19.63999939   8.52999973  58.09000015
C    18.38999939   8.03999996  57.80000305
C    18.04000092   7.42999983  56.55000305
C    19.07999992   7.30999994  55.63999939
C    20.39999962   7.73999977  55.89000320
C    21.51000023   7.59000015  55.00000000
C    22.76000023   8.00000000  55.38999939
C    23.09000015   8.42000008  56.70000076
C    22.04000092   8.56999969  57.57999802
C    20.69999886   8.31999969  57.16999817
C    16.60000038   7.42999983  56.38999939
C    15.90000057   7.90999985  57.52999878
C    14.55000019   8.25000000  57.55000305
C    24.50000000   8.76999950  57.11000061
H    24.97705650   8.13629913  57.85762405
H    19.72999954   9.22999954  58.92000198
H    18.81000137   7.03000021  54.62999725
H    21.31999969   7.23000002  53.99000168
H    23.50000000   7.96999979  54.59000015
H    22.19000053   8.89999962  58.61000061
H    14.07999992   8.76999950  58.36999893
H    25.10000038   8.76999950  56.18999863
H    24.47000122   9.80000019  57.49000168
S    13.30999947   6.81999969  54.09999847
C    10.59000015   6.67999983  54.92000198
C    11.90000057   7.03999996  55.14999771
C    12.30999947   7.62000036  56.38999939
C    11.31000042   7.88999987  57.29999924
C     9.94999981   7.57999992  57.04999924
C     8.89000034   7.73999977  57.98999786
C     7.57999992   7.36999989  57.81000137
C     7.25000000   6.63000011  56.65000153
C     8.23000050   6.37000036  55.72000122
C     9.56999969   6.80999994  55.90000153
C    13.76000023   7.72000027  56.52000046
C    14.46000004   7.20000029  55.38999939
C    15.81999969   6.97000027  55.31999969
C     5.84000015   6.28000021  56.20999908
H     5.41295004   6.82804728  55.37013245
H    10.32999992   6.30999994  53.93000031
H    11.56000042   8.34000015  58.26000214
H     9.15000057   8.10999966  58.97999573
H     6.85999966   7.65999985  58.56999969
H     7.92999983   5.82000017  54.82999802
H    16.22999954   6.54999971  54.40999985
H     5.23999977   6.40999985  57.11999893
H     5.84999990   5.21000004  56.00000000
S    17.43000031   8.80999947  52.85999680
C    20.15000153   8.86999989  52.04000092
C    18.84000015   8.51000023  51.81999969
C    18.36000061   8.07999992  50.54999924
C    19.29999924   8.05000019  49.52000046
C    20.63999939   8.40999985  49.75000000
C    21.70999908   8.30999947  48.81000137
C    22.98999977   8.76999950  48.97999573
C    23.45000076   9.06999969  50.30000305
C    22.50999832   9.11999989  51.30000305
C    21.14000130   8.85000038  51.03000259
C    16.92000008   7.88000011  50.45999908
C    16.25000000   8.34999943  51.60999680
C    14.86999989   8.51000023  51.55000305
C    24.84000015   9.55999947  50.61000061
H    25.27522659   9.08196449  51.48758698
H    20.40999985   9.26999950  53.02000046
H    18.96000099   7.64999962  48.56999969
H    21.40999985   7.86000013  47.87000275
H    23.68999863   8.92000008  48.15999985
H    22.77000046   9.36999989  52.31999969
H    14.30999947   8.71000004  52.44999695
H    25.48000145   9.26999950  49.75999832
H    24.77999878  10.65000057  50.72999954
S    13.83999920   7.55999994  47.76000214
C    11.07999992   7.51999950  48.44999695
C    12.38999939   7.82999992  48.74000168
C    12.79000092   8.17000008  50.06999969
C    11.82000065   8.28999996  51.04999924
C    10.44999981   7.99000025  50.81999969
C     9.40999985   8.00000000  51.79000092
C     8.11999989   7.83999968  51.36000061
C     7.73999977   7.57000017  50.01999664
C     8.76999950   7.25000000  49.15999985
C    10.11000061   7.62000036  49.47999954
C    14.22000027   8.25000000  50.34000015
C    14.88999939   7.78999996  49.16999817
C    16.26000023   7.55999994  49.27000046
C     6.32999992   7.07999992  49.78000259
H     5.85411024   7.57719803  48.93476868
H    10.72000027   7.13999987  47.49000168
H    12.17000008   8.56999969  52.04000092
H     9.68000031   8.21000004  52.81999969
H     7.35000038   7.62000036  52.09999847
H     8.64999962   6.61999989  48.27999878
H    16.87000084   7.22000027  48.43999863
H     5.69000006   7.13999987  50.66999817
H     6.28999996   6.01999998  49.48999786
