96

S    17.04000092   8.07999992  58.81999969
C    19.69000053   8.34000015  58.13000107
C    18.44000053   7.90999985  57.74000168
C    18.07999992   7.55000019  56.39999771
C    19.05999947   7.53999996  55.43000031
C    20.36999893   7.96000004  55.76000214
C    21.42999840   7.90000010  54.80999756
C    22.63000107   8.46000004  55.19000244
C    22.98999977   8.71999931  56.53999710
C    22.04000092   8.52000046  57.50999832
C    20.69000053   8.27999973  57.12999725
C    16.63999939   7.44999981  56.24000168
C    15.95999908   7.73000002  57.45999908
C    14.57999992   7.88999987  57.51999664
C    24.38999939   9.13999939  56.91999817
H    24.82530022   8.41925621  57.61219788
H    19.93000031   8.71999931  59.12000275
H    18.86999893   7.09999990  54.45999908
H    21.35999870   7.46999979  53.81999969
H    23.45000076   8.47000027  54.47000122
H    22.15999985   8.80000019  58.55999756
H    14.19000053   8.19999981  58.47999954
H    25.00999832   9.26999950  56.02000427
H    24.33000183  10.10000038  57.45999908
S    13.50999928   6.97000027  53.75000000
C    10.77999973   6.88000011  54.47000122
C    12.09000015   7.11000013  54.80999756
C    12.44999981   7.53000021  56.12999725
C    11.44999981   7.85000038  57.02999878
C    10.11000061   7.53000021  56.72000122
C     9.11999989   7.63000011  57.74000168
C     7.77999973   7.46000004  57.45999908
C     7.44999981   6.74000025  56.27999878
C     8.40999985   6.48999977  55.33000183
C     9.75000000   6.96000004  55.45000076
C    13.89000034   7.57000017  56.35000229
C    14.56999969   7.22000027  55.15999603
C    15.95999908   7.21000004  55.04000092
C     6.02999973   6.24000025  56.13999939
H     5.53187084   6.80217457  55.35010910
H    10.54999924   6.43000031  53.50999832
H    11.72000027   8.23000050  58.01000214
H     9.46000004   8.05999947  58.68000031
H     7.07000017   7.69999981  58.25000000
H     8.30999947   6.28999996  54.27000046
H    16.47999954   7.14999962  54.09000015
H     5.47999954   6.24000025  57.09000015
H     5.96000004   5.19000006  55.80999756
S    17.02000046   9.07999992  52.74000168
C    19.69000053   9.39000034  52.09999847
C    18.45999908   8.89999962  51.72000122
C    18.15000153   8.30000019  50.45999908
C    19.22999954   8.10000038  49.61999893
C    20.52000046   8.56000042  49.94999695
C    21.51000023   8.43999958  48.94000244
C    22.70999908   9.09000015  49.13000107
C    22.95999908   9.64999962  50.40999985
C    22.06000137   9.73999977  51.45000076
C    20.78000069   9.15999985  51.23000336
C    16.72000122   8.05999947  50.28999710
C    15.98000050   8.51000023  51.42000198
C    14.60999966   8.71000004  51.39999771
C    24.41999817   9.96999931  50.63999939
H    24.91897964   9.25004387  51.28867722
H    19.70000076   9.98999977  53.01000214
H    18.96999931   7.69000006  48.63999939
H    21.22999954   7.90999985  48.02999878
H    23.47999954   8.93000031  48.37999725
H    22.32999992  10.21000004  52.39999771
H    14.06999969   9.03999996  52.28000259
H    24.82000160   9.85999966  49.61999893
H    24.46000099  11.00000000  51.00000000
S    13.45000076   7.46999979  47.87000275
C    10.76000023   7.31999969  48.62999725
C    12.05000019   7.69000006  48.93000031
C    12.38999939   8.23999977  50.20999908
C    11.36999989   8.36000061  51.13999939
C    10.03000069   7.96999979  50.89000320
C     8.93999958   8.18000031  51.77999878
C     7.64999962   7.81000042  51.46999741
C     7.34000015   7.23999977  50.20999908
C     8.36999989   7.11999989  49.29999924
C     9.72000027   7.46999979  49.58000183
C    13.83999920   8.25000000  50.31999969
C    14.57999992   7.81000042  49.19000244
C    15.97000027   7.71000004  49.16999817
C     5.88000011   7.07999992  49.81999969
H     5.62481260   7.66126060  48.93393326
H    10.42000008   6.94000006  47.67000198
H    11.65999985   8.64999962  52.15000153
H     9.07999992   8.64000034  52.75000000
H     6.84000015   8.18000031  52.09000015
H     8.07999992   6.80000019  48.30999756
H    16.52000046   7.32999992  48.30999756
H     5.26999998   7.40999985  50.65999985
H     5.77000046   6.00000000  49.72999954
