96

S    16.95000076   8.32999992  58.81000137
C    19.63000107   8.57999992  58.00000000
C    18.32999992   8.23000050  57.70000076
C    17.95999908   7.88000011  56.36000061
C    18.96000099   7.76999998  55.40999985
C    20.30999947   8.07999992  55.68000031
C    21.30000114   7.95000029  54.65999985
C    22.56999969   8.36000061  54.99000168
C    22.89999962   8.97000027  56.23000336
C    21.93000031   9.10000038  57.19999695
C    20.61000061   8.60999966  56.97999954
C    16.51000023   7.95000029  56.23000336
C    15.82999992   8.21000004  57.43999863
C    14.45000076   8.32999992  57.48000336
C    24.34000015   9.30999947  56.55000305
H    24.60371780   8.71841240  57.42668915
H    19.93000031   8.90999985  58.99000168
H    18.61999893   7.39000034  54.45000076
H    21.04000092   7.67000008  53.63999939
H    23.38000107   8.23999977  54.27999878
H    22.15999985   9.28999996  58.23999786
H    13.88000011   8.42000008  58.40999985
H    25.06000137   9.06999969  55.76000214
H    24.44000053  10.36999893  56.83000183
S    13.30999947   7.30999994  53.79000092
C    10.67000008   7.03999996  54.59000015
C    11.95000076   7.42999983  54.92000198
C    12.27000046   7.96999979  56.20999908
C    11.26000023   8.03999996  57.14000320
C     9.92999935   7.63999987  56.86000061
C     8.89999962   7.86000013  57.81000137
C     7.59000015   7.62000036  57.47000122
C     7.30999994   6.94999981  56.25000000
C     8.28999996   6.76000023  55.28999710
C     9.61999989   7.18999958  55.52000046
C    13.71999931   8.06999969  56.31000137
C    14.40000057   7.78999996  55.10000229
C    15.78999996   7.78999996  55.04000092
C     5.88999987   6.57000017  55.93000031
H     5.41430283   7.12379742  55.12060547
H    10.51000023   6.60000038  53.60000229
H    11.52999973   8.52000046  58.08000183
H     9.15999985   8.36999989  58.74000168
H     6.74000025   7.88999987  58.09000015
H     8.00000000   6.32000017  54.34000015
H    16.36999893   7.49000025  54.16999817
H     5.29999971   6.77999973  56.83000183
H     5.80999947   5.50000000  55.68000031
S    17.64000130   9.17000008  52.63999939
C    20.29999924   9.43000031  51.76000214
C    19.02000046   8.96000004  51.55000305
C    18.56999969   8.26000023  50.38999939
C    19.50000000   8.05999947  49.38000107
C    20.86999893   8.30999947  49.61999893
C    21.84000015   8.13000011  48.60000229
C    23.16999817   8.34000015  48.89999771
C    23.54999924   8.94999981  50.13000107
C    22.63000107   9.27999973  51.10000229
C    21.27000046   8.92000008  50.86000061
C    17.13999939   7.95000029  50.31000137
C    16.51000023   8.59000015  51.40999603
C    15.14999962   8.90999985  51.38999939
C    25.00000000   9.23999977  50.40000153
H    25.38418198   8.87716198  51.35334015
H    20.61000061  10.06000042  52.58999634
H    19.26000023   7.57999992  48.43999863
H    21.48999977   7.69999981  47.65999603
H    23.97000122   8.23999977  48.18000031
H    22.79999924   9.88000011  51.98999786
H    14.60999966   9.32999992  52.22999954
H    25.65000153   8.82000065  49.61999893
H    25.03999901  10.32999992  50.34999847
S    14.09999943   7.37999964  47.87000275
C    11.38000011   7.59999990  48.40000153
C    12.67000008   7.92999983  48.75999832
C    12.97999954   8.45000076  50.06000137
C    11.94000053   8.67000008  50.94999695
C    10.60999966   8.36000061  50.61000061
C     9.53999996   8.45000076  51.55000305
C     8.26000023   8.10999966  51.17000198
C     8.00000000   7.53000021  49.89999771
C     9.02000046   7.35000038  48.99000168
C    10.31999969   7.82999992  49.31000137
C    14.40999985   8.38999939  50.31999969
C    15.13000011   7.78999996  49.25000000
C    16.47999954   7.46000004  49.19000244
C     6.57000017   7.09999990  49.66999817
H     6.00863791   7.86743212  49.13706207
H    11.11999989   7.11999989  47.45999908
H    12.11999989   9.06000042  51.95000076
H     9.77999973   8.73999977  52.56999969
H     7.53999996   8.03999996  51.97999954
H     8.80999947   6.84000015  48.04999924
H    16.97000122   7.17000008  48.27000046
H     5.97000027   6.89000034  50.56000137
H     6.54999971   6.12999964  49.16999817
