96

S    16.84000015   8.06999969  58.90999603
C    19.51000023   8.15999985  58.29000092
C    18.23999977   7.88000011  57.84999847
C    17.86000061   7.39000034  56.56000137
C    18.82999992   7.17999983  55.59000015
C    20.15999985   7.51999950  55.94999695
C    21.19999886   7.42000008  54.98000336
C    22.50999832   7.69000006  55.28999710
C    22.80999947   8.00000000  56.63999939
C    21.84999847   8.23999977  57.58999634
C    20.48999977   7.96000004  57.27000427
C    16.40999985   7.36999989  56.38999939
C    15.73999977   7.85000038  57.54000092
C    14.34999943   7.94000053  57.58999634
C    24.23999977   8.43000031  56.90000153
H    24.68889046   7.83860397  57.69802856
H    19.65999985   8.61999989  59.26000214
H    18.63000107   6.93000031  54.54999924
H    20.96999931   6.90000010  54.05000305
H    23.26999855   7.64999962  54.52000046
H    22.00000000   8.63000011  58.59000397
H    13.81000042   8.01999950  58.53000259
H    24.90999985   8.34000015  56.03000259
H    24.28999901   9.48000050  57.21000290
S    13.19000053   6.94999981  53.89999771
C    10.50000000   7.11999989  54.54000092
C    11.79999924   7.20000029  54.97000122
C    12.15000057   7.65999985  56.27999878
C    11.16000080   7.90000010  57.21000290
C     9.81000042   7.82999992  56.77999878
C     8.78000069   7.82999992  57.76000214
C     7.50000000   7.42999983  57.48000336
C     7.17000008   7.09999990  56.12999725
C     8.11999989   7.09000015  55.13000107
C     9.46000004   7.44999981  55.44000244
C    13.60000038   7.67000008  56.44000244
C    14.27000046   7.20000029  55.27999878
C    15.65999985   7.09000015  55.24000168
C     5.80999947   6.57999992  55.75000000
H     5.37774515   7.37364769  55.14059067
H    10.26000023   6.80000019  53.53000259
H    11.50000000   8.01999950  58.23999786
H     9.11999989   8.13000011  58.75000000
H     6.74000025   7.37999964  58.25000000
H     7.86000013   6.54999971  54.22000122
H    16.15999985   6.85999966  54.31000137
H     5.32000017   6.40999985  56.70999908
H     5.97000027   5.63000011  55.22999573
S    13.56999969   5.09000015  50.66999817
C    10.85000038   4.69999981  51.12999725
C    12.15000057   4.44000006  51.51000214
C    12.55000019   3.78999996  52.71999741
C    11.52999973   3.42000008  53.56999969
C    10.19000053   3.76999998  53.27999878
C     9.13000011   3.45000005  54.18000031
C     7.82000017   3.74000025  53.88999939
C     7.44000006   4.35999966  52.67000198
C     8.43999958   4.61999989  51.75000000
C     9.81000042   4.40000010  52.04000092
C    14.00000000   3.72000003  52.85999680
C    14.70999908   4.42000008  51.84999847
C    16.05999947   4.74000025  51.95999908
C     5.98000002   4.61999989  52.41000366
H     5.61726284   4.03677607  51.56361771
H    10.59000015   5.25000000  50.22999573
H    11.69999981   2.92000008  54.52000046
H     9.32999992   3.19999981  55.21999741
H     7.16000032   3.35999990  54.66999817
H     8.25000000   5.05000019  50.77999878
H    16.50000000   5.42999983  51.24000168
H     5.50000000   4.41000032  53.37999725
H     5.79999971   5.65000010  52.06999969
S    17.09000015   3.12000012  55.43000031
C    19.82999992   3.68000007  55.01999664
C    18.52000046   3.78999996  54.62999725
C    18.20999908   4.32000017  53.33000183
C    19.23999977   4.71000004  52.50000000
C    20.58000183   4.55999994  52.93000031
C    21.65999985   4.96000004  52.09000015
C    22.95999908   4.90000010  52.55000305
C    23.29000092   4.23000002  53.75000000
C    22.29000092   3.77999997  54.59000015
C    20.95000076   4.05000019  54.22000122
C    16.77999878   4.23000002  53.04999924
C    16.07999992   3.47000003  54.02000046
C    14.73999977   3.09999990  53.87000275
C    24.76000023   3.98000002  54.01000214
H    25.08796692   4.43629932  54.94398880
H    20.05000114   3.02999997  55.86999893
H    19.03000069   5.13999987  51.52000046
H    21.31999969   5.32999992  51.11999893
H    23.74000168   5.36999989  51.95999908
H    22.59000015   3.07999992  55.35999680
H    14.11000061   2.73000002  54.66999817
H    25.30999947   4.50000000  53.22000122
H    25.02000046   2.91000009  53.93000031
