96

S    16.95000076   8.27999973  58.97999573
C    19.64999962   8.43999958  58.27999878
C    18.37000084   8.03999996  57.95000076
C    17.95999908   7.49000025  56.69000244
C    18.97999954   7.42000008  55.76000214
C    20.34000015   7.72000027  56.04000092
C    21.42000008   7.69000006  55.11000061
C    22.72999954   8.01000023  55.34999847
C    23.02999878   8.42000008  56.66999817
C    22.03000069   8.59000015  57.60000229
C    20.69000053   8.18000031  57.36000061
C    16.52000046   7.42999983  56.49000168
C    15.84000015   7.90000010  57.64999771
C    14.48999977   8.21000004  57.62000275
C    24.46000099   8.71000004  57.04999924
H    24.76662254   8.23937225  57.98412704
H    19.93999863   8.94999981  59.20000076
H    18.76000023   7.07000017  54.75000000
H    21.09000015   7.30000019  54.15000153
H    23.59999847   7.73999977  54.75999832
H    22.27999878   9.02000046  58.55999756
H    13.90999985   8.67000008  58.41999817
H    25.20000076   8.43999958  56.26999664
H    24.54000092   9.80000019  57.09000015
S    13.31999969   7.23000002  53.95999908
C    10.62999916   7.30999994  54.71000290
C    11.92999935   7.65999985  54.99000168
C    12.30000019   7.92000008  56.33999634
C    11.31999969   7.95000029  57.31999969
C     9.96000004   7.82999992  56.97999954
C     8.93000031   7.82000017  57.95999908
C     7.59999990   7.59999990  57.67000198
C     7.25000000   7.14999962  56.37000275
C     8.21000004   7.11000013  55.38999939
C     9.56999969   7.46999979  55.63999939
C    13.75000000   7.96000004  56.45999908
C    14.40999985   7.37999964  55.34000015
C    15.80000019   7.23000002  55.31000137
C     5.82999992   6.69000053  56.11999893
H     5.39633131   7.22319937  55.27399063
H    10.47000027   6.80999994  53.76999664
H    11.56999969   8.10000038  58.36999893
H     9.28999996   8.07999992  58.95000076
H     6.93000031   7.67000008  58.52000427
H     7.96000004   6.61000013  54.45999908
H    16.46000099   6.94000006  54.50000000
H     5.26000023   6.80000019  57.04999924
H     5.96000004   5.60999966  56.00999832
S    17.43000031   8.71999931  52.70999908
C    20.17000008   8.75000000  52.06999969
C    18.86999893   8.43999958  51.72000122
C    18.53999901   8.06999969  50.38000107
C    19.52000046   7.97999954  49.40000153
C    20.86999893   8.17000008  49.78000259
C    21.98999786   8.01999950  48.92000198
C    23.29000092   8.21000004  49.29999924
C    23.59999847   8.67999935  50.59999847
C    22.55000114   8.88000011  51.47999573
C    21.21000099   8.56999969  51.11999893
C    17.10000038   8.05999947  50.15999603
C    16.36999893   8.47999954  51.30000305
C    15.01000023   8.76999950  51.29000092
C    25.03999901   8.93999958  50.97999954
H    25.41589928   8.22366428  51.71052170
H    20.48000145   9.13999939  53.02999878
H    19.36000061   7.73999977  48.34999847
H    21.83000183   7.63000011  47.90999985
H    23.95999908   8.05999947  48.44999695
H    22.70999908   9.15999985  52.50999832
H    14.52000046   9.00000000  52.22999954
H    25.62999916   8.93999958  50.06000137
H    25.02000046   9.96999931  51.37000275
S    13.89999962   7.59000015  47.64999771
C    11.19999981   7.57000017  48.34000015
C    12.48000050   7.96000004  48.63999939
C    12.86000061   8.47000027  49.93000031
C    11.82000065   8.60000038  50.81999969
C    10.48999977   8.14999962  50.61999893
C     9.44999981   8.09000015  51.59000015
C     8.14000034   7.76000023  51.32999802
C     7.90000010   7.22000027  50.04000092
C     8.86999989   7.13000011  49.06999969
C    10.19000053   7.57999992  49.34000015
C    14.29999924   8.60999966  50.08999634
C    14.98999977   8.14000034  48.94000244
C    16.35000038   7.86999989  49.00000000
C     6.51999998   6.75000000  49.64000320
H     6.16376877   7.42683935  48.86341476
H    11.00999928   7.04999971  47.39999771
H    12.07999992   8.80000019  51.84999847
H     9.72000027   8.30999947  52.62000275
H     7.44000006   7.72000027  52.15000153
H     8.60000038   6.65999985  48.11999893
H    16.87999916   7.49000025  48.13000107
H     5.91000032   6.61000013  50.54000092
H     6.60000038   5.75999975  49.15999985
