96

S    17.00000000   8.43000031  58.92000198
C    19.70000076   8.50000000  58.15999985
C    18.39999962   8.15999985  57.87000275
C    17.97999954   7.76000023  56.56000137
C    18.96000099   7.71000004  55.59000015
C    20.31999969   7.94000053  55.90999985
C    21.38000107   7.73999977  54.98000336
C    22.67999840   8.07999992  55.25000000
C    23.02999878   8.60999966  56.52000046
C    22.07999992   8.80000019  57.50000000
C    20.72999954   8.47000027  57.18000031
C    16.53000069   7.63999987  56.44000244
C    15.85000038   8.01999950  57.63000107
C    14.47000027   7.97999954  57.74000168
C    24.44999886   9.03999996  56.84000015
H    24.85606003   8.39172745  57.61650085
H    19.90999985   8.94999981  59.12000275
H    18.79999924   6.93000031  54.84000397
H    20.98999977   7.50000000  53.99000168
H    23.43000031   7.92000008  54.47999954
H    22.37999916   9.34000015  58.39000320
H    14.04999924   8.38000011  58.66000366
H    24.96000099   8.80999947  55.90000153
H    24.56000137  10.11000061  57.04999924
S    13.26000023   6.80000019  54.18000031
C    10.59999943   6.84000015  54.89999771
C    11.87999916   7.17999983  55.24000168
C    12.20000076   7.73000002  56.52000046
C    11.18999958   7.96999979  57.43999863
C     9.88000011   7.50999975  57.16999817
C     8.76999950   7.57999992  58.06000137
C     7.48000050   7.31999969  57.65999603
C     7.25000000   6.65000010  56.44000244
C     8.28999996   6.47000027  55.54999924
C     9.55999947   7.02000046  55.84999847
C    13.64999962   7.67000008  56.65000153
C    14.35999966   7.35000038  55.45999908
C    15.73999977   7.34000015  55.33000183
C     5.88999987   6.01000023  56.23000336
H     5.25002670   6.58597565  55.56158066
H    10.52000046   6.21999979  54.01000214
H    11.54000092   8.19999981  58.43999863
H     8.98999977   7.97999954  59.03999710
H     6.69000053   7.55000019  58.37999725
H     8.13000011   5.79999971  54.72000122
H    16.18000031   7.00000000  54.38999939
H     5.45000029   6.07999992  57.22999954
H     5.98999977   4.96000004  55.93999863
S    17.56999969   8.67000008  52.85999680
C    20.26000023   9.03999996  52.09999847
C    19.02000046   8.50000000  51.84999847
C    18.70000076   7.96000004  50.56000137
C    19.69000053   7.92000008  49.59999847
C    20.98999977   8.43999958  49.82999802
C    22.06000137   8.21000004  48.92000198
C    23.36000061   8.40999985  49.29999924
C    23.67000198   9.07999992  50.51000214
C    22.63999939   9.34000015  51.38999939
C    21.28999901   9.01000023  51.11999893
C    17.26000023   7.88000011  50.40000153
C    16.46999931   8.26000023  51.52000046
C    15.08999920   8.40999985  51.52000046
C    25.10000038   9.40999985  50.89000320
H    25.62858200   8.85999012  51.66858673
H    20.65999985   9.36999989  53.04999924
H    19.50000000   7.40000010  48.67000198
H    21.87000084   7.63999987  48.01000214
H    24.13000107   8.00000000  48.64999771
H    22.85000038   9.85000038  52.31999969
H    14.56999969   8.76999950  52.41000366
H    25.65000153   9.19000053  49.97000122
H    25.13000107  10.47999954  51.12999725
S    14.06000042   7.34000015  47.81999969
C    11.33999920   7.30999994  48.47000122
C    12.63000011   7.64999962  48.81999969
C    12.96000004   8.05999947  50.14999771
C    11.92999935   8.15999985  51.05999756
C    10.59000015   7.95000029  50.65000153
C     9.55999947   7.78999996  51.63000107
C     8.27000046   7.46000004  51.31999969
C     7.95000029   6.96000004  50.01999664
C     8.93999958   7.03999996  49.06999969
C    10.22999954   7.59999990  49.29999924
C    14.40999985   8.13000011  50.34000015
C    15.13000011   7.71000004  49.19000244
C    16.52000046   7.63000011  49.23999786
C     6.52999973   6.53999996  49.75000000
H     6.06882524   7.13597918  48.96245575
H    11.14999962   6.61000013  47.65999603
H    12.15000057   8.23000050  52.11999893
H     9.81999969   7.78999996  52.69000244
H     7.57000017   7.37999964  52.14000320
H     8.78999996   6.56000042  48.09999847
H    17.02999878   7.30000019  48.34000015
H     6.07999992   6.80000019  50.72000122
H     6.34999990   5.46000004  49.68000031
