96

S    17.19000053   8.47999954  58.87000275
C    19.85999870   8.67000008  58.13000107
C    18.57999992   8.32999992  57.77999878
C    18.22000122   7.85000038  56.47999573
C    19.23999977   7.53000021  55.59999847
C    20.58000183   7.88999987  55.90000153
C    21.67000008   7.69000006  55.00999832
C    22.95000076   8.03999996  55.34000015
C    23.23999786   8.60999966  56.60999680
C    22.22999954   8.85000038  57.50999832
C    20.88999939   8.48999977  57.16999817
C    16.77000046   7.83999968  56.37000275
C    16.04999924   8.22000027  57.54000092
C    14.67000008   8.38000011  57.58999634
C    24.61000061   9.06000042  57.04999924
H    25.12232971   8.28439140  57.61925125
H    20.15999985   9.00000000  59.12000275
H    18.92000008   7.09999990  54.65999985
H    21.42999840   7.30999994  54.02000046
H    23.67000198   7.73000002  54.59000015
H    22.27999878   9.47000027  58.40000153
H    14.19000053   8.64000034  58.53000259
H    25.27000046   9.46000004  56.25999832
H    24.40999985   9.90999985  57.70999908
S    13.63999939   6.78999996  54.02999878
C    10.95999908   6.67999983  54.59999847
C    12.20999908   7.07000017  55.04000092
C    12.46000099   7.72000027  56.29000092
C    11.39999962   7.96000004  57.14000320
C    10.10000038   7.63999987  56.69000244
C     8.93000031   7.79999971  57.50000000
C     7.69000006   7.36000013  57.09000015
C     7.46000004   6.72999954  55.84000015
C     8.56999969   6.48000002  55.06999969
C     9.85999966   6.94999981  55.45000076
C    13.88000011   7.94000053  56.52000046
C    14.57999992   7.49000025  55.37000275
C    15.95999908   7.50999975  55.27000046
C     6.06999969   6.19999981  55.56999969
H     5.50440931   6.81508017  54.87008286
H    10.78999996   6.14000034  53.67000198
H    11.49000072   8.30999947  58.16999817
H     9.18000031   8.23000050  58.46000290
H     6.86999989   7.36000013  57.80000305
H     8.42000008   5.75999975  54.27000046
H    16.36000061   7.03999996  54.38000107
H     5.46000004   6.21000004  56.47999573
H     6.11999989   5.13999987  55.28999710
S    13.90999985   4.76000023  51.14999771
C    11.23999977   4.21000004  51.72999954
C    12.56000042   4.13000011  52.09999847
C    13.02000046   3.61999989  53.36000061
C    12.03999996   3.12999988  54.20999908
C    10.67999935   3.07000017  53.83999634
C     9.67000008   2.66000009  54.75000000
C     8.34000015   2.71000004  54.40999985
C     7.88000011   3.22000003  53.15999985
C     8.86999989   3.63000011  52.29999924
C    10.26000023   3.65999985  52.58999634
C    14.46000004   3.65000010  53.50000000
C    15.06999969   4.35999966  52.43000031
C    16.42000008   4.69000006  52.43999863
C     6.39999962   3.42999983  52.95000076
H     6.10807037   3.23775387  51.91756821
H    10.90000057   4.55999994  50.76000214
H    12.38000011   2.80999994  55.19000244
H     9.85999966   2.30999994  55.76000214
H     7.68000031   2.56999993  55.26000214
H     8.53999996   4.02999973  51.33999634
H    16.94000053   5.21000004  51.65000153
H     5.79999971   2.89999986  53.68999863
H     6.38000011   4.51000023  53.15000153
S    17.70000076   3.26999998  55.90000153
C    20.38999939   3.63999987  55.24000168
C    19.05999947   3.84000015  54.92000198
C    18.63000107   4.55999994  53.75999832
C    19.57999992   5.07000017  52.88999939
C    20.95000076   4.79999971  53.13999939
C    21.90000153   5.29999971  52.19999695
C    23.23999786   5.28999996  52.51999664
C    23.62999916   4.63000011  53.70999908
C    22.76000023   3.98999977  54.56999969
C    21.37000084   4.15999985  54.36000061
C    17.20000076   4.40000010  53.56999969
C    16.54000092   3.72000003  54.62999725
C    15.24000072   3.23000002  54.59000015
C    25.09000015   4.26999998  53.83999634
H    25.48185349   4.69035339  54.76620102
H    20.72999954   3.15000010  56.14999771
H    19.29999924   5.46000004  51.91999817
H    21.50000000   5.84999990  51.36000061
H    23.95000076   5.82999992  51.90000153
H    23.18000031   3.38000011  55.37000275
H    14.70999908   2.86000013  55.47000122
H    25.69000053   4.63999987  53.00000000
H    25.12000084   3.17000008  53.86000061
