96

S    16.79999924   8.73000050  58.86000061
C    19.54000092   8.53999996  58.26000214
C    18.22999954   8.42000008  57.85999680
C    17.86999893   7.95000029  56.55000305
C    18.79999924   7.76999998  55.54000092
C    20.13999939   8.05999947  55.89000320
C    21.19999886   7.95000029  54.93999863
C    22.52000046   8.23999977  55.22999573
C    22.85000038   8.69000053  56.52999878
C    21.84999847   8.84000015  57.47000122
C    20.50000000   8.47999954  57.22000122
C    16.44000053   7.76000023  56.40999603
C    15.72000027   8.19000053  57.56000137
C    14.32999992   8.17000008  57.68000031
C    24.25000000   9.11000061  56.91999817
H    24.61397934   8.55332661  57.78355789
H    19.85999870   8.98999977  59.20000076
H    18.52000046   7.55999994  54.51000214
H    20.86000061   7.46000004  54.02999878
H    23.25000000   8.01000023  54.45999908
H    21.98999786   9.09000015  58.52000427
H    13.86999989   8.60000038  58.56999969
H    24.90999985   8.89999962  56.06999969
H    24.18000031  10.19000053  57.08000183
S    13.15999985   7.07000017  54.03999710
C    10.44000053   7.23999977  54.65999985
C    11.75000000   7.36000013  55.06999969
C    12.13000107   7.73999977  56.38999939
C    11.10000038   8.01000023  57.28000259
C     9.72999954   7.86999989  56.95000076
C     8.71999931   7.88000011  57.95000076
C     7.40999985   7.60999966  57.63000107
C     7.07999992   7.18999958  56.31999969
C     8.03999996   7.17999983  55.34000015
C     9.40999985   7.49000025  55.59999847
C    13.57999992   7.79999971  56.56000137
C    14.27000046   7.48000050  55.37000275
C    15.65000057   7.44000006  55.30000305
C     5.65000010   6.84000015  55.93999863
H     5.24351311   7.46042728  55.14128876
H    10.24000072   6.81999969  53.68000031
H    11.44999981   8.23000050  58.27999878
H     9.10000038   8.01999950  58.95999908
H     6.71000004   7.46999979  58.44999695
H     7.78999996   6.72999954  54.38000107
H    16.14999962   7.05999947  54.40999985
H     5.03999996   6.76000023  56.84999847
H     5.89999962   5.84000015  55.56999969
S    17.20999908   9.13000011  52.78999710
C    19.90999985   9.22000027  52.11999893
C    18.63000107   8.86999989  51.76000214
C    18.25000000   8.36999989  50.47000122
C    19.25000000   8.11999989  49.54999924
C    20.59999847   8.38999939  49.87999725
C    21.68000031   8.26000023  48.95999908
C    22.98000145   8.45000076  49.36999893
C    23.31000137   8.97000027  50.65000153
C    22.27000046   9.26000023  51.50000000
C    20.93000031   8.90999985  51.18999863
C    16.80999947   8.32999992  50.27999878
C    16.10999870   8.71000004  51.45999908
C    14.73000050   8.64000034  51.59999847
C    24.72999954   9.31999969  51.04999924
H    25.15238762   8.77590561  51.89477539
H    20.27000046   9.70000076  53.02000046
H    18.98999977   7.86999989  48.53000259
H    21.42000008   7.99000025  47.94000244
H    23.75999832   8.50000000  48.61999893
H    22.53999901   9.65999985  52.48000336
H    14.25000000   8.89999962  52.54000092
H    25.43000031   9.22000027  50.20999908
H    24.75000000  10.39999962  51.25999832
S    13.60999966   7.76000023  47.84999847
C    10.93000031   7.59999990  48.53000259
C    12.20999908   7.92000008  48.93000031
C    12.55000019   8.23000050  50.28999710
C    11.54999924   8.40999985  51.23000336
C    10.21999931   8.19000053  50.79000092
C     9.06999969   8.45000076  51.58000183
C     7.77999973   8.15999985  51.20999908
C     7.44999981   7.75000000  49.88999939
C     8.53999996   7.40000010  49.13000107
C     9.89000034   7.67000008  49.50000000
C    14.00000000   8.28999996  50.47000122
C    14.67000008   8.10000038  49.22999954
C    16.05999947   7.97999954  49.15999985
C     6.05999994   7.32999992  49.47000122
H     5.64685869   7.92834187  48.65796661
H    10.69000053   7.30999994  47.50999832
H    11.64000034   8.61999989  52.29000092
H     9.31999969   8.82000065  52.56999969
H     6.98999977   8.27999973  51.93999863
H     8.38999939   6.81999969  48.22000122
H    16.47999954   7.77999973  48.18000031
H     5.46999979   7.39000034  50.40000153
H     6.00000000   6.28999996  49.12000275
