96

S    16.90000153   8.84000015  58.59000397
C    19.62000084   8.89000034  57.88999939
C    18.31999969   8.60999966  57.55000305
C    17.97000122   8.03999996  56.27999878
C    19.01000023   7.78999996  55.40999985
C    20.36000061   8.01999950  55.75000000
C    21.45000076   7.77999973  54.86000061
C    22.76000023   8.10999966  55.14999771
C    23.05000114   8.76999950  56.38000107
C    22.04000092   9.00000000  57.28000259
C    20.69999886   8.64000034  57.01000214
C    16.53000069   7.82999992  56.19999695
C    15.80000019   8.28999996  57.31999969
C    14.42000008   8.40999985  57.35000229
C    24.47000122   9.22000027  56.66999817
H    24.93281555   8.62902069  57.46034241
H    19.95000076   9.27999973  58.86000061
H    18.78999901   7.55999994  54.36000061
H    21.19999886   7.39000034  53.88000107
H    23.54999924   7.81000042  54.47999954
H    22.32000160   9.40999985  58.25000000
H    14.00000000   8.85999966  58.23999786
H    25.03999901   9.25000000  55.73999786
H    24.37000084  10.27999973  56.93000031
S    13.35000038   6.96000004  53.81000137
C    10.67000008   6.57999992  54.54000092
C    11.94000053   6.97000027  54.87999725
C    12.28999996   7.46999979  56.18000031
C    11.21999931   7.77999973  57.00000000
C     9.88000011   7.42000008  56.72000122
C     8.76000023   7.64999962  57.56999969
C     7.53000021   7.09999990  57.36000061
C     7.26000023   6.60000038  56.04999924
C     8.27000046   6.44999981  55.13000107
C     9.61000061   6.80999994  55.45000076
C    13.71000099   7.73000002  56.35000229
C    14.40999985   7.27999973  55.20000076
C    15.80000019   7.25000000  55.14999771
C     5.86999989   6.14000034  55.63999939
H     5.44251204   6.85960436  54.94176865
H    10.38000011   6.21000004  53.55999756
H    11.33999920   8.51000023  57.80000305
H     8.97999954   8.22000027  58.47000122
H     6.69000053   7.27999973  58.02999878
H     7.96000004   5.98999977  54.20000076
H    16.39999962   6.83000040  54.34999847
H     5.17000008   6.05000019  56.47999573
H     5.98999977   5.23000002  55.05000305
S    17.15999985   8.93999958  52.67000198
C    19.88000107   9.11999989  52.08000183
C    18.61999893   8.71999931  51.69000244
C    18.29000092   8.27000046  50.37000275
C    19.34999847   7.86000013  49.59000015
C    20.65999985   8.27999973  49.91000366
C    21.77000046   8.09000015  49.03999710
C    23.05999947   8.27000046  49.48999786
C    23.29999924   8.94999981  50.72000122
C    22.26000023   9.30000019  51.53999710
C    20.93000031   8.97999954  51.13999939
C    16.84999847   8.22000027  50.12000275
C    16.11999893   8.59000015  51.27999878
C    14.73999977   8.69000053  51.32999802
C    24.70999908   9.38000011  51.06999969
H    25.20742989   8.58411217  51.62427902
H    20.00000000   9.68000031  53.00000000
H    19.09000015   7.35000038  48.66000366
H    21.56999969   7.72000027  48.04000092
H    23.94000053   8.05999947  48.89999771
H    22.49000168   9.59999943  52.56000137
H    14.23999977   9.19000053  52.15999985
H    25.26000023   9.63000011  50.14999771
H    24.63000107  10.26999950  51.70000076
S    13.61999989   7.40000010  47.74000168
C    10.93000031   7.23999977  48.44999695
C    12.22000027   7.57999992  48.81000137
C    12.56999969   8.18000031  50.06000137
C    11.56000042   8.45000076  50.97000122
C    10.22999954   8.10999966  50.65000153
C     9.17000008   8.19000053  51.60999680
C     7.86000013   7.88000011  51.33999634
C     7.51999950   7.44999981  50.02999878
C     8.52999973   7.22000027  49.13000107
C     9.90999985   7.49000025  49.38999939
C    14.01999950   8.27999973  50.20000076
C    14.73000050   7.82000017  49.06000137
C    16.11999893   7.73000002  49.03999710
C     6.10000038   7.03999996  49.68000031
H     5.72836637   7.40448761  48.72232819
H    10.70000076   6.94000006  47.43000031
H    11.79999924   8.93000031  51.91999817
H     9.40999985   8.43999958  52.63999939
H     7.11000013   7.76999998  52.11000061
H     8.30999947   6.84000015  48.13999939
H    16.61999893   7.44000006  48.11999893
H     5.52999973   7.51999950  50.47999954
H     6.00000000   5.95000029  49.79999924
