96

S    17.13999939   8.40999985  58.73000336
C    19.85000038   8.59000015  58.02000046
C    18.56999969   8.22000027  57.70000076
C    18.22999954   7.73000002  56.38999939
C    19.22999954   7.63999987  55.43000031
C    20.55000114   8.03999996  55.75000000
C    21.54000092   7.99000025  54.73999786
C    22.82999992   8.36999989  55.04000092
C    23.15000153   8.90999985  56.31000137
C    22.19000053   9.07999992  57.28000259
C    20.86999893   8.60000038  57.04000092
C    16.79000092   7.59999990  56.29000092
C    16.03000069   7.90000010  57.44999695
C    14.65999985   8.18000031  57.43999863
C    24.56999969   9.43000031  56.44000244
H    25.14519501   8.81929970  57.13591766
H    20.05000114   9.10000038  58.95999908
H    19.04999924   7.27999973  54.41999817
H    21.35999870   7.53000021  53.76999664
H    23.61999893   8.27000046  54.29999924
H    22.43999863   9.59000015  58.20999908
H    14.27999973   8.75000000  58.27999878
H    24.99000168   9.51000023  55.43000031
H    24.46000099  10.43000031  56.88000107
S    13.57999992   7.30999994  53.73000336
C    10.86999989   7.13999987  54.40999985
C    12.13999939   7.53999996  54.75000000
C    12.44999981   7.95000029  56.09000397
C    11.40999985   8.19999981  56.95999908
C    10.06999969   8.01000023  56.56000137
C     8.97999954   8.14999962  57.47000122
C     7.69999981   7.76000023  57.14000320
C     7.44000006   7.17000008  55.87999725
C     8.47999954   6.88000011  55.01999664
C     9.78999996   7.36999989  55.30000305
C    13.89000034   7.86999989  56.31999969
C    14.63000107   7.55999994  55.13999939
C    16.01000023   7.42999983  55.13999939
C     6.03999996   6.69000053  55.58000183
H     5.50131655   7.34209061  54.89247131
H    10.78999996   6.75000000  53.40000153
H    11.56000042   8.48999977  57.98999786
H     9.11000061   8.52000046  58.47999954
H     6.96000004   7.69000006  57.93000031
H     8.30000019   6.34000015  54.09999847
H    16.42000008   7.11999989  54.18000031
H     5.53999996   6.80999994  56.55000305
H     5.98000002   5.63000011  55.30000305
S    13.71000099   5.01999950  50.93000031
C    11.07999992   4.61999989  51.63000107
C    12.39999962   4.35999966  51.91999817
C    12.79000092   3.89999986  53.22000122
C    11.82000065   3.63999987  54.16999817
C    10.46000004   3.84000015  53.83999634
C     9.36999989   3.32999992  54.61000061
C     8.03999996   3.50000000  54.29999924
C     7.67000008   4.09000015  53.06000137
C     8.67999935   4.53000021  52.22999954
C    10.05000019   4.28999996  52.54000092
C    14.22000027   4.09999990  53.43000031
C    14.80999947   4.71000004  52.29000092
C    16.13999939   5.09999990  52.25999832
C     6.23000050   4.50000000  52.84999847
H     5.81036234   4.08747435  51.93248749
H    10.90999985   5.31000042  50.79999924
H    12.13000107   3.28999996  55.14999771
H     9.71000004   2.76999998  55.47000122
H     7.26000023   3.25000000  55.00999832
H     8.39999962   5.09000015  51.33999634
H    16.53000069   5.56999969  51.36000061
H     5.60999966   4.26000023  53.73000336
H     6.10000038   5.58000040  52.75000000
S    17.64999962   3.58000016  55.65000153
C    20.29999924   4.09999990  54.80999756
C    18.94000053   4.17000008  54.59999847
C    18.39999962   4.80999994  53.43999863
C    19.26000023   5.25000000  52.44999695
C    20.65000153   5.19000006  52.68000031
C    21.54000092   5.65000010  51.65999985
C    22.89999962   5.68000031  51.88000107
C    23.47999954   5.00999975  52.98999786
C    22.63999939   4.48999977  53.94000244
C    21.21999931   4.63000011  53.87000275
C    16.95000076   4.76999998  53.36000061
C    16.42000008   4.07000017  54.47000122
C    15.05000019   3.86999989  54.52999878
C    24.97999954   4.84000015  53.06000137
H    25.41269302   5.15210676  54.01050949
H    20.62999916   3.49000001  55.65000153
H    18.81999969   5.69999981  51.56000137
H    21.11999893   6.00000000  50.72000122
H    23.44000053   5.98999977  50.98999786
H    23.05999947   4.05999994  54.84000397
H    14.72000027   3.42999983  55.47000122
H    25.56999969   5.22000027  52.22000122
H    25.03999901   3.75000000  52.90999985
