96

S    16.79999924   8.50000000  58.89999771
C    19.51000023   8.43999958  58.29000092
C    18.22000122   8.10999966  57.91999817
C    17.81999969   7.64999962  56.63000107
C    18.82999992   7.49000025  55.68999863
C    20.15000153   7.90999985  55.96000290
C    21.17000198   7.94000053  54.97000122
C    22.49000168   8.18000031  55.26000214
C    22.85000038   8.51000023  56.59999847
C    21.88999939   8.52999973  57.57999802
C    20.52000046   8.26000023  57.30999756
C    16.36999893   7.68000031  56.50000000
C    15.62999916   8.10999966  57.63000107
C    14.25000000   8.27000046  57.63000107
C    24.26000214   8.92000008  56.95999908
H    24.71679688   8.24194145  57.68088531
H    19.76000023   8.88000011  59.25000000
H    18.63000107   7.16000032  54.66999817
H    20.94000053   7.57000017  53.97999573
H    23.22999954   8.00000000  54.48999786
H    22.23999977   8.97000027  58.52000427
H    13.71999931   8.60999966  58.52000427
H    24.82000160   8.89999962  56.02000427
H    24.25000000   9.89999962  57.44999695
S    13.23999977   7.07999992  54.00000000
C    10.52999973   6.93000031  54.75000000
C    11.82000065   7.26999998  55.05000305
C    12.10000038   7.88999987  56.31000137
C    11.07999992   8.11999989  57.21000290
C     9.72999954   7.76999998  56.93999863
C     8.64999962   7.88000011  57.84999847
C     7.34000015   7.59000015  57.54000092
C     7.07999992   7.13000011  56.22000122
C     8.10000038   6.98000002  55.30000305
C     9.47000027   7.13000011  55.66999817
C    13.55000019   7.96999979  56.45999908
C    14.30999947   7.53000021  55.34999847
C    15.70000076   7.44999981  55.30000305
C     5.73000002   6.67000008  55.73999786
H     5.22565651   7.43006659  55.14331055
H    10.21999931   6.48999977  53.80000305
H    11.21000099   8.43999958  58.23999786
H     8.89000034   8.26000023  58.83999634
H     6.53999996   7.78999996  58.23999786
H     7.82999992   6.67000008  54.29999924
H    16.21999931   7.17000008  54.38999939
H     5.09000015   6.44999981  56.59999847
H     5.91000032   5.69000006  55.28999710
S    13.57999992   4.90000010  51.02000427
C    10.84000015   4.65000010  51.66999817
C    12.15999985   4.46000004  51.98999786
C    12.50000000   3.94000006  53.27999878
C    11.54999924   3.65000010  54.23999786
C    10.19999981   3.71000004  53.81999969
C     9.18000031   3.25000000  54.71000290
C     7.83999968   3.42999983  54.45000076
C     7.50999975   4.00999975  53.20000076
C     8.43000031   4.38000011  52.23999786
C     9.81000042   4.30000019  52.56999969
C    13.94999981   3.91999984  53.47000122
C    14.65000057   4.50000000  52.37999725
C    15.98000050   4.88999987  52.42000198
C     6.05000019   4.18000031  52.84000015
H     5.61647987   3.54748607  52.06534958
H    10.53999996   5.00999975  50.68000031
H    11.89000034   3.07999992  55.10000229
H     9.43000031   2.76999998  55.65000153
H     7.13999987   3.08999991  55.20999908
H     8.03999996   4.59000015  51.25000000
H    16.39000130   5.36000013  51.52000046
H     5.46000004   3.97000027  53.73000336
H     5.88999987   5.26000023  52.69000244
S    17.18000031   3.45000005  55.91999817
C    19.92000008   3.88000011  55.28999710
C    18.57999992   4.05000019  55.00999832
C    18.20000076   4.57999992  53.74000168
C    19.11000061   5.15999985  52.88000107
C    20.46999931   5.03000021  53.23999786
C    21.42000008   5.51000023  52.29000092
C    22.77000046   5.40000010  52.52999878
C    23.21000099   4.92000008  53.79000092
C    22.32000160   4.41000032  54.72000122
C    20.92000008   4.48999977  54.48999786
C    16.77000046   4.50000000  53.50000000
C    16.09000015   3.88000011  54.58000183
C    14.72000027   3.63000011  54.59999847
C    24.69000053   4.59999990  53.75999832
H    25.17279625   4.94079733  54.67589569
H    20.23999977   3.16000009  56.04000092
H    18.84000015   5.56999969  51.90999985
H    21.02000046   5.88000011  51.35000229
H    23.51000023   5.72000027  51.81000137
H    22.50000000   3.74000025  55.54999924
H    14.21000004   3.32999992  55.50000000
H    25.20000076   5.07999992  52.90999985
H    24.89999962   3.52999973  53.75000000
