96

S    16.94000053   8.27000046  59.02999878
C    19.68000031   8.64999962  58.29999924
C    18.38999939   8.25000000  58.01000214
C    18.05999947   7.69999981  56.72999954
C    19.11000061   7.50999975  55.84999847
C    20.45999908   7.86999989  56.09000397
C    21.45999908   7.77999973  55.07999802
C    22.73999977   8.13000011  55.45999908
C    23.08000183   8.57999992  56.76000214
C    22.11000061   8.57999992  57.74000168
C    20.75000000   8.34999943  57.42000198
C    16.62999916   7.71000004  56.45000076
C    15.88999939   8.00000000  57.62000275
C    14.51000023   8.05999947  57.68000031
C    24.51000023   9.01000023  57.01000214
H    24.98151779   8.51704979  57.86016083
H    19.85999870   9.25000000  59.18000031
H    18.92000008   7.18999958  54.82999802
H    21.14000130   7.28999996  54.15999985
H    23.48999977   8.18000031  54.68999863
H    22.32000160   9.13000011  58.66000366
H    14.00000000   8.19000053  58.62999725
H    25.12000084   8.90999985  56.10000229
H    24.48999786  10.07999992  57.25999832
S    13.42000008   7.00000000  54.00000000
C    10.72000027   7.00000000  54.75999832
C    12.03999996   7.23999977  55.07999802
C    12.35999966   7.71000004  56.39999771
C    11.36000061   7.88999987  57.34000397
C    10.01000023   7.64999962  57.01000214
C     8.97000027   7.99000025  57.90999985
C     7.63000011   7.86000013  57.63000107
C     7.31999969   7.35000038  56.33999634
C     8.28999996   7.00000000  55.43000031
C     9.67000008   7.25000000  55.66999817
C    13.81000042   7.78999996  56.50000000
C    14.52999973   7.44000006  55.31999969
C    15.90999985   7.34000015  55.30000305
C     5.89999962   6.86999989  56.11999893
H     5.40744066   7.39111328  55.29906845
H    10.51000023   6.57999992  53.77999878
H    11.65999985   8.14000034  58.36000061
H     9.23999977   8.43000031  58.87000275
H     6.88000011   7.79999971  58.41999817
H     8.02999973   6.42000008  54.54999924
H    16.42000008   6.94000006  54.43000031
H     5.29999971   6.93000031  57.04000092
H     5.95000029   5.82000017  55.80999756
S    13.61999989   5.03999996  50.86000061
C    10.92000008   4.61999989  51.43000031
C    12.23000050   4.50000000  51.83000183
C    12.61000061   3.79999995  53.02000046
C    11.65999985   3.40000010  53.94000244
C    10.29999924   3.56999993  53.56999969
C     9.26000023   3.17000008  54.45000076
C     7.94000053   3.38000011  54.09000015
C     7.62000036   4.09999990  52.90999985
C     8.56000042   4.30999994  51.93000031
C     9.92000008   4.07000017  52.28000259
C    14.04999924   3.81999993  53.20000076
C    14.70999908   4.50000000  52.15000153
C    16.05999947   4.86000013  52.16999817
C     6.21000004   4.51999998  52.56000137
H     5.81147957   3.95068526  51.72026062
H    10.59999943   5.13999987  50.52999878
H    11.85999966   2.92000008  54.88999939
H     9.52000046   2.86000013  55.45999908
H     7.14999962   3.16000009  54.79000092
H     8.36000061   4.84000015  51.00999832
H    16.44000053   5.59999990  51.47999573
H     5.71000004   4.28000021  53.50999832
H     6.12999964   5.59999990  52.42000198
S    17.25000000   3.24000001  55.65000153
C    19.90999985   3.96000004  55.20999908
C    18.59000015   4.11000013  54.86999893
C    18.17000008   4.72000027  53.64999771
C    19.09000015   5.28999996  52.77999878
C    20.43999863   5.18000031  53.18000031
C    21.47000122   5.46000004  52.23999786
C    22.80999947   5.26999998  52.45999908
C    23.19999886   4.61000013  53.66000366
C    22.27000046   4.28000021  54.61000061
C    20.88999939   4.59000015  54.40999985
C    16.77000046   4.48999977  53.31999969
C    16.15999985   3.68000007  54.31000137
C    14.84000015   3.28000021  54.22999954
C    24.61999893   4.09000015  53.77999878
H    25.24777222   4.52516079  54.55758286
H    20.22999954   3.32999992  56.04000092
H    18.81999969   5.56999969  51.76000214
H    21.25000000   5.73999977  51.20999908
H    23.54999924   5.45000029  51.69000244
H    22.47999954   3.68000007  55.48999786
H    14.32999992   2.69000006  54.99000168
H    25.07999802   4.35999966  52.81999969
H    24.57999992   2.99000001  53.80000305
