96

S    17.11000061   8.80000019  58.68999863
C    19.80999947   8.71000004  57.95000076
C    18.48999977   8.47999954  57.62000275
C    18.17000008   7.92999983  56.33999634
C    19.17000008   7.63000011  55.43000031
C    20.48999977   8.05000019  55.68999863
C    21.54999924   7.81000042  54.77000427
C    22.84000015   8.23999977  54.99000168
C    23.12000084   8.97000027  56.17000198
C    22.15999985   9.07999992  57.15000153
C    20.84000015   8.59000015  56.97999954
C    16.72000122   7.82999992  56.24000168
C    16.02000046   8.34999943  57.36000061
C    14.65999985   8.60000038  57.31999969
C    24.54000092   9.38000011  56.51000214
H    25.00157738   8.74089432  57.26272583
H    20.00999832   8.86999989  59.01000214
H    18.90999985   7.02000046  54.56999969
H    21.28999901   7.36999989  53.81000137
H    23.65999985   8.07999992  54.31000137
H    22.46000099   9.47000027  58.11999893
H    14.11000061   8.97999954  58.16999817
H    25.15999985   9.34000015  55.61000061
H    24.41999817  10.39000034  56.90000153
S    13.47000027   7.02000046  53.89999771
C    10.80000019   7.09999990  54.56999969
C    12.07999992   7.49000025  54.88999939
C    12.48000050   7.95000029  56.18000031
C    11.46999931   8.21000004  57.09000015
C    10.11000061   7.92000008  56.81999969
C     9.13000011   7.79999971  57.84000015
C     7.86000013   7.36999989  57.54000092
C     7.46999979   7.14999962  56.18999863
C     8.40999985   7.25000000  55.19000244
C     9.77999973   7.44999981  55.50000000
C    13.93000031   8.07999992  56.24000168
C    14.63000107   7.44000006  55.19000244
C    16.01000023   7.30000019  55.14999771
C     6.03999996   6.72999954  55.93999863
H     5.54048395   7.41505051  55.25495148
H    10.55999947   6.56000042  53.64999771
H    11.64999962   8.60000038  58.09000015
H     9.42000008   8.01000023  58.86000061
H     7.14999962   7.20000029  58.36000061
H     8.27999973   6.93000031  54.15999985
H    16.55999947   6.85999966  54.31999969
H     5.55000019   6.56000042  56.90999985
H     6.15000010   5.75000000  55.45999908
S    13.63000011   4.81999969  50.97999954
C    10.95999908   4.53000021  51.69000244
C    12.27000046   4.25000000  51.97000122
C    12.69999981   3.70000005  53.22000122
C    11.76000023   3.26999998  54.15000153
C    10.39000034   3.42999983  53.86000061
C     9.39999962   3.07000017  54.81999969
C     8.06999969   3.32999992  54.58000183
C     7.68000031   3.84000015  53.31999969
C     8.60999966   4.19000006  52.36999893
C    10.00000000   4.00000000  52.58999634
C    14.13000011   3.86000013  53.43000031
C    14.75000000   4.50000000  52.31999969
C    16.09000015   4.85000038  52.35000229
C     6.23000050   4.13999987  52.97999954
H     5.87935400   3.56751633  52.12127304
H    10.59999943   5.19999981  50.90999985
H    12.03999996   2.96000004  55.14999771
H     9.68999958   2.77999997  55.81999969
H     7.27999973   3.19999981  55.31000137
H     8.25000000   4.65999985  51.45999908
H    16.61999893   5.29999971  51.52000046
H     5.52999973   3.96000004  53.80000305
H     6.12999964   5.21000004  52.75000000
S    17.42000008   3.55999994  55.90000153
C    20.13000107   3.91000009  55.15999603
C    18.78000069   4.05999994  54.88999939
C    18.31999969   4.55000019  53.62999725
C    19.26000023   5.07999992  52.76000214
C    20.65000153   5.01999950  53.02999878
C    21.59000015   5.45000029  52.05999756
C    22.93000031   5.21000004  52.23999786
C    23.45000076   4.59999990  53.40999985
C    22.50999832   4.18000031  54.31999969
C    21.09999847   4.34999990  54.22999954
C    16.87999916   4.41000032  53.41999817
C    16.28999901   3.78999996  54.54999924
C    14.92000008   3.58000016  54.55999756
C    24.90999985   4.25000000  53.59000397
H    25.27288628   4.71250105  54.50788498
H    20.48000145   3.33999991  56.00999832
H    18.97999954   5.52999973  51.81000137
H    21.25000000   5.82000017  51.09000397
H    23.64999962   5.51999998  51.47999573
H    22.90999985   3.63000011  55.15999603
H    14.46000004   3.37000012  55.52000046
H    25.46999931   4.57999992  52.70000076
H    25.00000000   3.17000008  53.75000000
