96

S    16.81999969   8.48999977  58.81000137
C    19.51000023   8.60000038  58.18000031
C    18.25000000   8.21000004  57.80000305
C    17.92000008   7.82999992  56.45999908
C    18.93000031   7.76000023  55.52000046
C    20.26000023   8.10999966  55.86999893
C    21.28000069   8.05999947  54.87999725
C    22.55000114   8.46000004  55.20999908
C    22.86999893   8.78999996  56.56000137
C    21.90000153   8.85999966  57.52999878
C    20.53999901   8.57999992  57.19999695
C    16.48999977   7.59999990  56.32999802
C    15.77000046   7.85000038  57.52999878
C    14.37999916   7.82000017  57.55000305
C    24.28999901   9.19999981  56.88999939
H    24.66693115   8.59548950  57.71497726
H    19.67000008   8.93000031  59.20000076
H    18.70000076   7.53000021  54.47999954
H    21.11000061   7.76999998  53.85000229
H    23.45000076   8.45000076  54.59999847
H    22.11999893   9.13000011  58.54999924
H    13.82999992   8.23000050  58.40000153
H    24.92000198   9.11999989  55.98999786
H    24.26000214  10.26000023  57.16999817
S    13.26000023   7.02000046  53.87000275
C    10.52999973   6.84999990  54.54000092
C    11.84999943   6.97000027  54.93999863
C    12.22000027   7.23000002  56.30000305
C    11.21999931   7.55999994  57.18999863
C     9.86999989   7.31999969  56.83000183
C     8.92000008   7.50000000  57.87000275
C     7.59000015   7.35000038  57.54000092
C     7.23000002   6.76999998  56.30000305
C     8.13000011   6.57000017  55.27999878
C     9.48000050   6.97000027  55.48999786
C    13.66000080   7.42000008  56.42000198
C    14.39000034   7.20000029  55.21999741
C    15.77999973   7.21000004  55.19000244
C     5.84999990   6.19000006  56.09000397
H     5.24232483   6.75527954  55.38339996
H    10.27999973   6.48000002  53.54999924
H    11.40999985   7.96999979  58.16999817
H     9.19000053   7.57999992  58.92000198
H     6.80000019   7.30000019  58.27999878
H     7.92000008   6.10000038  54.31999969
H    16.35000038   6.77999973  54.36999893
H     5.32000017   6.09000015  57.04000092
H     5.97000027   5.18000031  55.68999863
S    13.73999977   5.00000000  51.04999924
C    11.11999989   4.35999966  51.65999985
C    12.43999958   4.28000021  52.02000046
C    12.89999962   3.65999985  53.22000122
C    11.92000008   3.22000003  54.09000015
C    10.54999924   3.35000014  53.77999878
C     9.52000046   2.73000002  54.54000092
C     8.17000008   2.79000020  54.27999878
C     7.77999973   3.60000014  53.18000031
C     8.69999981   4.19000006  52.34000397
C    10.08999920   3.95000005  52.55000305
C    14.34999943   3.81000018  53.33000183
C    14.94999981   4.55000019  52.27000427
C    16.31999969   4.76999998  52.11999893
C     6.30999994   3.63000011  52.87000275
H     5.96856451   3.37392354  51.86703491
H    10.84000015   4.88000011  50.75000000
H    12.09000015   2.66000009  55.00999832
H     9.77000046   2.27999997  55.48999786
H     7.50000000   2.39999986  55.05000305
H     8.27999973   4.63000011  51.45000076
H    16.77999878   5.46000004  51.42000198
H     5.65999985   3.07000017  53.55999756
H     6.06999969   4.67999983  53.09000015
S    17.64999962   3.16000009  55.56000137
C    20.25000000   4.02999973  55.04000092
C    18.93000031   4.00999975  54.68000031
C    18.53000069   4.55999994  53.41999817
C    19.48999977   5.15999985  52.62000275
C    20.86999893   5.09000015  52.93000031
C    21.84999847   5.60999966  52.04999924
C    23.18000031   5.42999983  52.35000229
C    23.61000061   4.84000015  53.56999969
C    22.65999985   4.50000000  54.51000214
C    21.27000046   4.57999992  54.22000122
C    17.12000084   4.30000019  53.16999817
C    16.54000092   3.58000016  54.23999786
C    15.19999981   3.21000004  54.26000214
C    25.06000137   4.42999983  53.72000122
H    25.46011925   4.92300367  54.60597610
H    20.63999939   3.58999991  55.94999695
H    19.20999908   5.66999960  51.70000076
H    21.57999992   6.05999994  51.10000229
H    23.88999939   5.68000031  51.56000137
H    22.95999908   3.95000005  55.40000153
H    14.73999977   2.56000018  55.00000000
H    25.50000000   4.81999969  52.80000305
H    25.22999954   3.35000014  53.83999634
