96

S    16.80999947   8.67999935  58.77999878
C    19.50000000   8.80999947  58.09000015
C    18.22999954   8.36999989  57.77000046
C    17.94999886   7.71000004  56.52999878
C    19.01000023   7.60999966  55.65000153
C    20.34000015   8.00000000  55.93000031
C    21.42999840   7.77999973  55.04000092
C    22.72999954   8.01999950  55.41999817
C    23.02000046   8.52999973  56.72000122
C    21.97000122   8.78000069  57.56999969
C    20.59999847   8.53999996  57.23999786
C    16.50000000   7.60999966  56.36000061
C    15.76000023   8.10999966  57.45999908
C    14.37999916   8.19999981  57.55000305
C    24.41999817   8.93999958  57.09999847
H    24.78273582   8.35677624  57.94638443
H    19.59000015   9.30999947  59.05000305
H    18.90999985   7.16000032  54.65999985
H    21.30000114   7.53000021  53.99000168
H    23.59000015   7.86999989  54.78000259
H    22.21999931   9.30000019  58.48999786
H    13.86000061   8.36000061  58.48999786
H    25.12000084   8.80999947  56.26999664
H    24.56000137   9.98000050  57.41000366
S    13.22999954   6.76999998  54.05000305
C    10.50000000   6.86999989  54.71000290
C    11.79999924   7.16000032  55.04000092
C    12.17000008   7.79999971  56.26999664
C    11.14999962   8.10999966  57.15000153
C     9.81000042   7.71000004  56.97000122
C     8.73999977   7.85000038  57.90000153
C     7.46000004   7.50000000  57.55000305
C     7.16000032   6.96000004  56.27999878
C     8.14999962   6.88000011  55.33000183
C     9.51000023   7.11999989  55.68999863
C    13.61999989   7.82999992  56.43000031
C    14.34000015   7.30000019  55.33000183
C    15.72000027   7.32999992  55.24000168
C     5.66999960   6.83000040  56.02000427
H     5.38455105   7.45085049  55.17079163
H    10.26999950   6.65000010  53.66000366
H    11.46000004   8.50000000  58.11999893
H     8.93999958   8.21000004  58.89999771
H     6.65999985   7.69000006  58.27000046
H     7.94000053   6.63000011  54.29000092
H    16.25000000   7.07000017  54.31999969
H     5.09999990   7.09999990  56.91999817
H     5.29999971   5.79999971  55.96000290
S    17.42000008   8.75000000  52.88999939
C    20.10999870   9.15999985  52.06999969
C    18.82999992   8.73000050  51.81000137
C    18.43000031   8.30999947  50.50000000
C    19.40999985   8.19000053  49.52999878
C    20.76000023   8.48999977  49.80999756
C    21.86000061   8.46000004  48.89999771
C    23.16999817   8.67999935  49.23999786
C    23.51000023   8.97000027  50.58000183
C    22.50000000   9.06000042  51.52000046
C    21.14000130   8.89000034  51.13999939
C    17.00000000   8.21000004  50.27000046
C    16.35000038   8.45000076  51.51000214
C    14.98000050   8.65999985  51.52999878
C    24.96000099   9.15999985  50.96000290
H    25.40152168   8.64726543  51.81455612
H    20.39999962   9.59999943  53.02999878
H    19.10000038   7.72000027  48.60000229
H    21.65999985   8.09000015  47.90000153
H    23.92999840   8.45000076  48.50000000
H    22.72000122   9.22000027  52.56999969
H    14.55999947   9.04999924  52.44999695
H    25.56999969   8.84000015  50.11000061
H    25.20999908  10.21999931  51.11000061
S    13.68000031   7.65999985  47.94000244
C    11.05000019   7.34000015  48.76999664
C    12.32999992   7.73999977  49.09000015
C    12.71999931   8.27000046  50.35999680
C    11.72000027   8.53999996  51.27999878
C    10.38000011   8.18000031  51.00000000
C     9.34000015   8.60000038  51.88000107
C     8.01999950   8.38999939  51.55000305
C     7.71000004   7.65999985  50.38000107
C     8.67999935   7.23999977  49.50000000
C    10.05000019   7.53999996  49.75000000
C    14.17000008   8.27999973  50.45000076
C    14.84000015   7.97999954  49.23999786
C    16.21999931   7.96999979  49.13000107
C     6.25999975   7.34000015  50.08999634
H     5.85351276   7.96042776  49.29128647
H    10.80999947   6.91999960  47.80000305
H    12.09000015   9.02999973  52.16999817
H     9.70000076   9.11999989  52.76000214
H     7.23000002   8.93000031  52.05999756
H     8.36000061   6.85999966  48.53000259
H    16.60000038   7.83999968  48.11000061
H     5.69000006   7.68000031  50.97000122
H     6.11000013   6.25000000  50.00000000
