96

S    16.88999939   8.82999992  58.62999725
C    19.67000008   8.43000031  58.09999847
C    18.35000038   8.45000076  57.70000076
C    18.02000046   7.97999954  56.38999939
C    19.04000092   7.67000008  55.50000000
C    20.38000107   7.96999979  55.83000183
C    21.42999840   7.83999968  54.86999893
C    22.70000076   8.19000053  55.24000168
C    23.02000046   8.59000015  56.56000137
C    22.07999992   8.59000015  57.56000137
C    20.72999954   8.38000011  57.15999985
C    16.60000038   7.81000042  56.13999939
C    15.88000107   8.21000004  57.29999924
C    14.50000000   8.36000061  57.28000259
C    24.47000122   8.93000031  56.86000061
H    24.88462448   8.26517487  57.61775589
H    19.96999931   8.85999966  59.05000305
H    18.88000107   7.30999994  54.48999786
H    21.22999954   7.69999981  53.81000137
H    23.42000008   8.14999962  54.41999817
H    22.27000046   8.76999950  58.61999893
H    13.96000004   8.59000015  58.20000076
H    25.09000015   8.85000038  55.96000290
H    24.56999969   9.94999981  57.25999832
S    13.47000027   6.91999960  53.70999908
C    10.71000004   6.96000004  54.31999969
C    12.02000046   7.23999977  54.66999817
C    12.34000015   7.78999996  55.94999695
C    11.32999992   7.92999983  56.88000107
C    10.00000000   7.53000021  56.60999680
C     9.01000023   7.57000017  57.63000107
C     7.69999981   7.23000002  57.38999939
C     7.37999964   6.80000019  56.07999802
C     8.31999969   6.67999983  55.07999802
C     9.68000031   7.05999947  55.28999710
C    13.78000069   7.95000029  56.16000366
C    14.51000023   7.50999975  55.01999664
C    15.88999939   7.40999985  55.00000000
C     6.01000023   6.19999981  55.84000015
H     5.44657612   6.84900761  55.16959381
H    10.53999996   6.50000000  53.34999847
H    11.61000061   8.26000023  57.88000107
H     9.38000011   7.94000053  58.57999802
H     7.00999975   7.18999958  58.22999954
H     8.10999966   6.09000015  54.20000076
H    16.39999962   7.03999996  54.12000275
H     5.55999994   6.03999996  56.83000183
H     6.11000013   5.22000027  55.35999680
S    17.42000008   9.09000015  52.57999802
C    20.09000015   9.13999939  51.88000107
C    18.82999992   8.65999985  51.59000015
C    18.51000023   8.09000015  50.31999969
C    19.52999878   8.02999973  49.38000107
C    20.86000061   8.36000061  49.72999954
C    21.98999786   8.03999996  48.92000198
C    23.29999924   8.39999962  49.16999817
C    23.54999924   9.09000015  50.38999939
C    22.52000046   9.31999969  51.27999878
C    21.17000198   9.02000046  50.97000122
C    17.06999969   7.97999954  50.14999771
C    16.38000107   8.39999962  51.31000137
C    15.00000000   8.59000015  51.32999802
C    24.96000099   9.27999973  50.89000320
H    25.28818321   8.55942440  51.63911438
H    20.15999985   9.61999989  52.84999847
H    19.34999847   7.59000015  48.40999985
H    21.65999985   7.69000006  47.95000076
H    24.05999947   7.96000004  48.54000092
H    22.72000122   9.61999989  52.29999924
H    14.45000076   8.85000038  52.22999954
H    25.72999954   9.26999950  50.10000229
H    25.10999870  10.29999924  51.26999664
S    13.89000034   7.09999990  47.76000214
C    11.16000080   7.17999983  48.40000153
C    12.46000099   7.42000008  48.77999878
C    12.84000015   7.96999979  50.04000092
C    11.84000015   8.19999981  50.96000290
C    10.48999977   8.00000000  50.61000061
C     9.42000008   8.34999943  51.49000168
C     8.10000038   8.13000011  51.19999695
C     7.85000038   7.25000000  50.11000061
C     8.78999996   7.02000046  49.13000107
C    10.11999989   7.46000004  49.33000183
C    14.27999973   8.10999966  50.22999573
C    14.94999981   7.57000017  49.09999847
C    16.34000015   7.53999996  49.02999878
C     6.44000006   6.74000025  49.93999863
H     5.89096785   7.28190184  49.16992950
H    10.98999977   6.69000053  47.43999863
H    12.05999947   8.61999989  51.93999863
H     9.68999958   8.80999947  52.43999863
H     7.35000038   8.47000027  51.90999985
H     8.56000042   6.34999990  48.29999924
H    16.88999939   7.16000032  48.16999817
H     5.92000008   6.91999960  50.89000320
H     6.47000027   5.65000010  49.78000259
