96

S    16.64999962   8.51000023  58.77999878
C    19.36000061   8.43000031  58.15999985
C    18.06999969   8.17000008  57.77000046
C    17.71000099   7.76999998  56.44000244
C    18.70000076   7.59999990  55.48999786
C    20.03999901   7.85000038  55.86999893
C    21.09999847   7.59000015  54.95999908
C    22.39999962   7.79999971  55.34999847
C    22.72999954   8.46000004  56.56999969
C    21.71999931   8.73000050  57.47000122
C    20.38999939   8.30000019  57.18999863
C    16.27000046   7.86000013  56.22000122
C    15.57999992   8.27999973  57.38999939
C    14.19999981   8.34999943  57.47000122
C    24.13000107   8.97999954  56.79999924
H    24.61827469   8.47757339  57.63501740
H    19.61000061   8.88000011  59.10999680
H    18.53000069   7.09999990  54.54999924
H    20.86000061   7.14999962  54.00000000
H    23.21000099   7.69000006  54.64000320
H    21.80999947   9.15999985  58.46000290
H    13.71000099   8.56999969  58.40999985
H    24.87999916   8.89000034  56.00999832
H    23.95999908  10.03999901  57.00000000
S    13.10999966   7.00000000  53.83999634
C    10.47999954   6.60000038  54.65000153
C    11.72000027   7.09999990  54.94999695
C    12.02000046   7.69999981  56.20999908
C    10.98000050   8.05000019  57.04000092
C     9.67000008   7.59000015  56.77999878
C     8.53999996   7.77999973  57.63000107
C     7.27999973   7.36999989  57.27000427
C     7.07999992   6.76999998  55.98999786
C     8.11999989   6.46000004  55.14999771
C     9.42000008   6.85999966  55.56000137
C    13.45999908   7.90999985  56.37000275
C    14.14000034   7.55000019  55.18000031
C    15.52000046   7.53999996  55.07999802
C     5.64000034   6.48000002  55.66999817
H     5.24662066   7.12371159  54.88323975
H    10.31999969   6.09000015  53.70999908
H    11.18999958   8.56999969  57.97999954
H     8.76999950   8.18000031  58.61000061
H     6.48000002   7.50000000  58.00000000
H     7.92000008   6.05999994  54.15999985
H    16.03000069   7.23999977  54.16999817
H     5.12000036   6.39999962  56.63999939
H     5.63000011   5.46999979  55.25000000
S    17.53999901   9.09000015  52.70999908
C    20.25000000   8.93000031  52.02000046
C    18.93000031   8.71999931  51.66999817
C    18.60000038   8.26000023  50.35999680
C    19.57999992   8.01000023  49.41999817
C    20.94000053   8.23000050  49.72999954
C    21.98999786   8.10000038  48.76999664
C    23.23999786   8.46000004  49.20000076
C    23.57999992   9.02999973  50.45000076
C    22.59000015   9.02000046  51.40999603
C    21.25999832   8.67000008  51.05999756
C    17.14999962   8.11999989  50.31000137
C    16.42000008   8.56000042  51.44000244
C    15.03000069   8.64000034  51.42000198
C    24.99000168   9.44999981  50.79999924
H    25.37375641   8.71801949  51.51065826
H    20.52999878   9.35999966  52.97999954
H    19.32999992   7.62000036  48.43999863
H    21.68000031   7.55000019  47.88000107
H    23.98999977   8.30000019  48.41999817
H    22.70999908   9.55000019  52.36000061
H    14.59000015   8.78999996  52.39999771
H    25.59999847   9.48999977  49.88999939
H    25.17000008  10.42000008  51.26999664
S    13.99000072   7.34000015  47.83000183
C    11.28000069   7.26999998  48.34999847
C    12.53000069   7.63000011  48.79000092
C    12.86000061   8.21000004  50.06000137
C    11.82000065   8.25000000  50.97000122
C    10.48999977   8.05999947  50.52999878
C     9.42000008   8.18000031  51.46999741
C     8.13000011   7.88999987  51.11000061
C     7.79999971   7.36000013  49.82999802
C     8.82999992   7.27999973  48.93000031
C    10.19000053   7.59000015  49.20000076
C    14.28999996   8.36000061  50.26000214
C    15.03999901   7.95000029  49.13000107
C    16.42000008   7.76999998  49.16999817
C     6.38000011   6.90999985  49.55999756
H     5.81605625   7.44538975  48.79617310
H    11.06999969   6.85999966  47.36000061
H    12.05999947   8.51000023  52.00000000
H     9.68000031   8.48999977  52.48000336
H     7.35000038   7.94000053  51.86999893
H     8.67000008   6.90999985  47.91999817
H    16.75000000   7.23999977  48.27999878
H     5.86999989   6.94999981  50.52999878
H     6.44999981   5.88000011  49.18000031
