96

S    16.95000076   8.36999989  58.95999908
C    19.65999985   8.71999931  58.25000000
C    18.37000084   8.40999985  57.90000153
C    17.94999886   8.05000019  56.58000183
C    18.95000076   7.82000017  55.65000153
C    20.29999924   8.01000023  56.00999832
C    21.30000114   7.78999996  55.02999878
C    22.63000107   8.05999947  55.27999878
C    23.02000046   8.60000038  56.53999710
C    22.06999969   8.78999996  57.51999664
C    20.69999886   8.48999977  57.30999756
C    16.53000069   7.75000000  56.46999741
C    15.80000019   7.99000025  57.65999603
C    14.40999985   8.01000023  57.77999878
C    24.47999954   8.94999981  56.73999786
H    24.84320259   8.30193424  57.53761673
H    19.89999962   9.02999973  59.27000046
H    18.68000031   7.67000008  54.61000061
H    21.02000046   7.62000036  53.99000168
H    23.25000000   8.15999985  54.40000153
H    22.43000031   9.11999989  58.47999954
H    13.96000004   7.99000025  58.76999664
H    25.10000038   8.67000008  55.87999725
H    24.54999924  10.01999950  56.97000122
S    13.34000015   7.13999987  54.08000183
C    10.59999943   7.14999962  54.61000061
C    11.87999916   7.40000010  55.06000137
C    12.23000050   7.76999998  56.38999939
C    11.17000008   7.96999979  57.25999832
C     9.85000038   7.64999962  56.88999939
C     8.80000019   7.48000050  57.84000015
C     7.55000019   7.05999947  57.45999908
C     7.18999958   6.80000019  56.10000229
C     8.19000053   6.98999977  55.17000198
C     9.53999996   7.23999977  55.54000092
C    13.67000008   7.86000013  56.60999680
C    14.40000057   7.40999985  55.47999954
C    15.77999973   7.34000015  55.34999847
C     5.82999992   6.28000021  55.70999908
H     5.29087162   7.01066113  55.10702896
H    10.31000042   6.80000019  53.61999893
H    11.35000038   8.07999992  58.33000183
H     8.97999954   7.51999950  58.90999603
H     6.84000015   7.03999996  58.27999878
H     7.92999983   6.84000015  54.13000107
H    16.18999863   7.13000011  54.36999893
H     5.36999989   6.26999950  56.70000076
H     5.92999983   5.28999996  55.25000000
S    14.00000000   4.90999985  50.83000183
C    11.28999901   4.79999971  51.44000244
C    12.57999992   4.51999998  51.81999969
C    12.93000031   4.09000015  53.13999939
C    11.92000008   3.61000013  53.95000076
C    10.59000015   3.52999973  53.47999954
C     9.47000027   3.12000012  54.26000214
C     8.15999985   3.31999993  53.89999771
C     7.92999983   4.00000000  52.68000031
C     8.93000031   4.36999989  51.81999969
C    10.27999973   4.19999981  52.23999786
C    14.37000084   4.18000031  53.36999893
C    15.03000069   4.78999996  52.27000427
C    16.35000038   5.19999981  52.38999939
C     6.51999998   4.51000023  52.47000122
H     6.00950575   4.02077675  51.64044952
H    11.13999939   5.38000011  50.52999878
H    12.13000107   3.25000000  54.94999695
H     9.73999977   2.99000001  55.30000305
H     7.32999992   3.25000000  54.61000061
H     8.78000069   4.94000006  50.90000153
H    16.84999847   5.84000015  51.66999817
H     5.91000032   4.23999977  53.34000015
H     6.44999981   5.59000015  52.25000000
S    17.68000031   3.53999996  55.72000122
C    20.35000038   3.89999986  55.01999664
C    19.03000069   4.21000004  54.78000259
C    18.59000015   4.94999981  53.63999939
C    19.54000092   5.40999985  52.74000168
C    20.92000008   5.29999971  53.04000092
C    21.88999939   5.78999996  52.12999725
C    23.22000122   5.53999996  52.34000397
C    23.61999893   4.76000023  53.47000122
C    22.70999908   4.28000021  54.36999893
C    21.31000137   4.48000002  54.15999985
C    17.14999962   4.82999992  53.47999954
C    16.52000046   4.03999996  54.47000122
C    15.15999985   3.73000002  54.43000031
C    25.07999802   4.41000032  53.62999725
H    25.48267746   4.77028990  54.57664490
H    20.55999947   3.17999983  55.80999756
H    19.22999954   5.80999947  51.77999878
H    21.63000107   6.43000031  51.27999878
H    24.00000000   5.88999987  51.66999817
H    22.90999985   3.61999989  55.20999908
H    14.75000000   3.10999990  55.21999741
H    25.51000214   4.85000038  52.71999741
H    25.28000069   3.32999992  53.62999725
