96

S    16.76000023   8.84000015  58.70999908
C    19.43000031   8.69000053  58.01000214
C    18.12000084   8.52999973  57.62000275
C    17.80999947   8.14000034  56.27999878
C    18.81999969   7.81000042  55.38000107
C    20.15999985   8.10999966  55.72999954
C    21.25999832   7.86000013  54.86000061
C    22.53000069   8.23000050  55.21999741
C    22.78000069   8.75000000  56.51000214
C    21.77999878   8.98999977  57.43000031
C    20.46999931   8.60000038  57.04000092
C    16.36000061   8.10999966  56.22000122
C    15.62999916   8.48999977  57.37999725
C    14.26000023   8.67999935  57.39999771
C    24.17000008   9.26999950  56.79999924
H    24.69553185   8.67345142  57.54568481
H    19.64999962   9.19000053  58.95000076
H    18.48999977   7.53999996  54.38000107
H    20.88000107   7.28999996  54.01000214
H    23.32999992   8.07999992  54.48999786
H    22.00000000   9.46000004  58.39000320
H    13.73999977   9.00000000  58.29999924
H    24.70999908   9.22999954  55.84999847
H    24.18000031  10.31000042  57.16999817
S    13.15999985   7.02000046  53.93000031
C    10.44999981   7.46999979  54.48999786
C    11.77000046   7.63999987  54.84000397
C    12.13000107   8.26000023  56.07999802
C    11.16000080   8.48999977  57.04000092
C     9.80000019   8.23999977  56.73999786
C     8.76000023   8.40999985  57.69000244
C     7.42000008   8.21000004  57.41000366
C     7.07999992   7.77999973  56.11000061
C     8.05000019   7.63000011  55.13999939
C     9.43000031   7.79999971  55.41999817
C    13.57999992   8.30999947  56.24000168
C    14.26000023   7.71000004  55.14999771
C    15.65000057   7.68000031  55.10000229
C     5.71000004   7.23999977  55.77999878
H     5.20618105   7.75801086  54.96395111
H    10.29000092   6.93000031  53.55999756
H    11.49000072   8.73999977  58.04000092
H     9.10000038   8.57999992  58.70999908
H     6.63000011   8.43000031  58.13000107
H     7.73000002   7.20000029  54.19000244
H    16.29999924   7.53000021  54.25000000
H     5.01999950   7.32999992  56.63000107
H     5.77000046   6.15000010  55.63999939
S    13.60999966   5.25000000  50.89000320
C    10.93000031   5.00000000  51.62000275
C    12.23999977   4.65999985  51.86000061
C    12.65999985   4.05999994  53.09000015
C    11.67000008   3.72000003  54.00000000
C    10.31000042   4.05999994  53.81000137
C     9.27999973   3.65000010  54.69999695
C     7.96999979   3.96000004  54.45000076
C     7.55999994   4.38000011  53.15000153
C     8.53999996   4.76000023  52.27000427
C     9.92999935   4.71000004  52.57999802
C    14.11000061   3.95000005  53.15999985
C    14.73000050   4.74000025  52.15999985
C    16.06999969   5.10999966  52.30999756
C     6.10000038   4.67000008  52.90000153
H     5.79447508   4.28631783  51.92658234
H    10.59000015   5.42000008  50.68000031
H    11.92000008   3.22000003  54.93999863
H     9.50000000   3.03999996  55.58000183
H     7.23999977   3.73000002  55.21999741
H     8.23999977   5.19000006  51.31999969
H    16.55999947   5.69999981  51.53999710
H     5.53999996   4.18000031  53.72000122
H     5.92000008   5.73999977  53.02000046
S    17.27000046   3.47000003  55.73999786
C    19.97999954   4.02999973  55.26000214
C    18.65999985   4.15000010  54.86999893
C    18.22999954   4.75000000  53.64999771
C    19.22000122   5.19999981  52.80000305
C    20.59999847   5.05000019  53.09000015
C    21.60000038   5.51999998  52.18999863
C    22.93000031   5.26000023  52.41000366
C    23.31999969   4.63000011  53.61999893
C    22.36000061   4.07000017  54.43000031
C    20.96999931   4.36999989  54.31000137
C    16.79000092   4.65999985  53.43000031
C    16.17000008   3.81999993  54.38999939
C    14.81999969   3.51999998  54.27999878
C    24.79000092   4.33999968  53.77999878
H    25.24436760   4.76597023  54.67453766
H    20.22000122   3.42000008  56.11999893
H    18.94000053   5.51000023  51.79999924
H    21.25000000   5.92999983  51.25000000
H    23.65999985   5.58000040  51.66999817
H    22.72999954   3.63000011  55.34999847
H    14.18000031   3.05000019  55.02999878
H    25.26000023   4.77999973  52.88999939
H    24.92000198   3.25999999  53.70999908
