96

S    17.05999947   8.45000076  58.77999878
C    19.79999924   8.38999939  58.20999908
C    18.51000023   8.10999966  57.83000183
C    18.09999847   7.73999977  56.50000000
C    19.15999985   7.55999994  55.63000107
C    20.52000046   7.82999992  55.93999863
C    21.61000061   7.59000015  55.06000137
C    22.90999985   7.77999973  55.45999908
C    23.22999954   8.14999962  56.79000092
C    22.20999908   8.43000031  57.67000198
C    20.86000061   8.19999981  57.29000092
C    16.65999985   7.59999990  56.32999802
C    15.93999958   8.03999996  57.47000122
C    14.55999947   8.23999977  57.49000168
C    24.64999962   8.56000042  57.14000320
H    25.12071991   8.01795959  57.96019363
H    19.96000099   8.82000065  59.20000076
H    18.92000008   6.90000010  54.79999924
H    21.31999969   7.14999962  54.09999847
H    23.57000160   7.59000015  54.61999893
H    22.50000000   8.78999996  58.66000366
H    14.04999924   8.51000023  58.40000153
H    25.26000023   8.42000008  56.24000168
H    24.75000000   9.63000011  57.36999893
S    13.40999985   6.94000006  53.95999908
C    10.67999935   6.93000031  54.64000320
C    11.97999954   7.27999973  54.94999695
C    12.41000080   7.73999977  56.23000336
C    11.44999981   7.92000008  57.21000290
C    10.11999989   7.51999950  56.97000122
C     9.09000015   7.76000023  57.91999817
C     7.77999973   7.36999989  57.75000000
C     7.44999981   6.97000027  56.43000031
C     8.34000015   6.77999973  55.40999985
C     9.70000076   7.13000011  55.65000153
C    13.86000061   7.88999987  56.32999802
C    14.57999992   7.46999979  55.18000031
C    15.95000076   7.23999977  55.18000031
C     6.00000000   6.65999985  56.13999939
H     5.55142498   7.22249889  55.32117462
H    10.31000042   6.43000031  53.75999832
H    11.64000034   8.28999996  58.20999908
H     9.51000023   8.23999977  58.80000305
H     6.97000027   7.73999977  58.36999893
H     8.22000027   6.51000023  54.36000061
H    16.46000099   6.71999979  54.36999893
H     5.49000025   6.86999989  57.09000015
H     5.93999958   5.56999969  56.02000427
S    17.22999954   8.92000008  52.88999939
C    19.89999962   9.11999989  52.09000015
C    18.63999939   8.61999989  51.84999847
C    18.27999878   8.18000031  50.54000092
C    19.26000023   7.90999985  49.59999847
C    20.56999969   8.40999985  49.78000259
C    21.55999947   8.38000011  48.75999832
C    22.82999992   8.82999992  49.03999710
C    23.13999939   9.43000031  50.28999710
C    22.14999962   9.55999947  51.24000168
C    20.84000015   9.06000042  51.03000259
C    16.82999992   8.15999985  50.38000107
C    16.13000107   8.56000042  51.53999710
C    14.75999928   8.80000019  51.51000214
C    24.56999969   9.77999973  50.63999939
H    24.98854256   9.01385498  51.29264450
H    20.23999977   9.71000004  52.94000244
H    18.94000053   7.34000015  48.73000336
H    21.37000084   8.01999950  47.75000000
H    23.47999954   8.85999966  48.16999817
H    22.46000099   9.92999935  52.21000290
H    14.19999981   9.18000031  52.36000061
H    25.17999840   9.80000019  49.72999954
H    24.51000023  10.71000004  51.20999908
S    13.63000011   7.75000000  47.84999847
C    10.90999985   7.78999996  48.59000397
C    12.23000050   8.01999950  48.89999771
C    12.61000061   8.46000004  50.20999908
C    11.64999962   8.69000053  51.17000198
C    10.29000092   8.38999939  50.89000320
C     9.32999992   8.43000031  51.93999863
C     8.01999950   8.10999966  51.65999985
C     7.63999987   7.59999990  50.38999939
C     8.57999992   7.42000008  49.40999985
C     9.89999962   7.92999983  49.58000183
C    14.06000042   8.38000011  50.38000107
C    14.75000000   7.95000029  49.22000122
C    16.13999939   7.90999985  49.18000031
C     6.19999981   7.28999996  50.06000137
H     5.80205584   7.90112829  49.24990082
H    10.71000004   7.28999996  47.64999771
H    12.05999947   8.92000008  52.15000153
H     9.68000031   8.67000008  52.94000244
H     7.32999992   8.34000015  52.45999908
H     8.38999939   6.84999990  48.50000000
H    16.68000031   7.57000017  48.29999924
H     5.68000031   7.40999985  51.00999832
H     5.97000027   6.26999950  49.71000290
