96

S    17.01000023   8.89999962  58.81000137
C    19.72999954   8.93000031  58.15999985
C    18.45000076   8.56999969  57.81999969
C    18.09000015   7.92999983  56.59000015
C    19.10000038   7.65999985  55.68000031
C    20.43999863   8.01999950  55.97000122
C    21.47999954   8.01999950  55.00000000
C    22.79000092   8.28999996  55.30000305
C    23.09999847   8.71999931  56.62000275
C    22.10000038   9.03999996  57.51999664
C    20.76999855   8.64000034  57.22999954
C    16.67000008   7.63999987  56.47999573
C    15.95000076   8.27000046  57.52999878
C    14.55999947   8.26000023  57.54000092
C    24.51999855   9.13000011  56.90999985
H    24.94588852   8.49116707  57.68369675
H    19.90999985   9.65999985  58.94000244
H    18.79999924   7.39000034  54.68000031
H    21.22999954   7.59999990  54.02999878
H    23.54999924   8.25000000  54.52000046
H    22.17000008   9.61999989  58.43000031
H    14.00000000   8.67999935  58.36999893
H    25.12000084   8.94999981  56.00999832
H    24.61999893  10.17000008  57.25000000
S    13.53999996   6.84000015  54.00000000
C    10.76000023   6.65000010  54.75000000
C    12.05999947   7.03999996  54.97000122
C    12.38999939   7.64999962  56.22000122
C    11.42000008   8.01999950  57.12999725
C    10.05000019   7.86999989  56.79999924
C     8.97999954   8.06999969  57.70999908
C     7.65999985   7.81000042  57.44999695
C     7.39000034   7.11999989  56.23000336
C     8.39999962   6.70000029  55.40000153
C     9.73999977   7.11000013  55.61000061
C    13.81999969   7.77999973  56.45000076
C    14.59000015   7.28999996  55.35999680
C    15.95999908   7.07999992  55.40999985
C     5.95000029   6.75000000  56.00000000
H     5.47229147   7.54142761  55.42247391
H    10.59999943   5.86000013  54.02000046
H    11.63000011   8.45000076  58.11000061
H     9.19000053   8.43999958  58.70999908
H     6.94000006   7.75000000  58.26000214
H     8.14999962   6.07999992  54.52999878
H    16.48999977   6.54999971  54.61999893
H     5.40000010   6.47000027  56.90999985
H     5.91000032   5.75000000  55.54000092
S    13.93000031   4.97000027  51.02000427
C    11.31999969   4.30999994  51.55000305
C    12.63000011   4.21999979  51.95999908
C    12.97000027   3.51000023  53.15999985
C    12.02999973   2.89999986  53.96999741
C    10.67999935   3.00000000  53.55999756
C     9.64999962   2.69000006  54.50000000
C     8.36000061   3.07999992  54.27000046
C     7.96999979   3.55999994  52.98999786
C     8.93999958   3.96000004  52.11000061
C    10.31999969   3.70000005  52.35000229
C    14.40999985   3.61000013  53.33000183
C    14.98999977   4.44999981  52.35000229
C    16.32999992   4.85000038  52.34000397
C     6.50000000   3.84999990  52.78999710
H     6.07874537   3.50014424  51.84753036
H    10.97000027   4.92999983  50.72999954
H    12.25000000   2.54999995  54.98000336
H    10.06999969   2.42000008  55.47000122
H     7.68000031   3.10999990  55.12000275
H     8.69999981   4.53000021  51.22000122
H    16.72000122   5.40999985  51.50000000
H     5.92000008   3.50000000  53.66000366
H     6.42000008   4.94000006  52.74000168
S    17.61999893   3.23000002  55.76000214
C    20.27000046   4.03999996  55.15999603
C    18.94000053   3.91999984  54.80999756
C    18.54999924   4.44000006  53.53000259
C    19.45999908   5.12000036  52.74000168
C    20.82999992   5.14999962  53.06999969
C    21.77000046   5.78000021  52.19999695
C    23.12000084   5.66999960  52.41000366
C    23.57000160   5.01999950  53.59000397
C    22.67000008   4.61000013  54.54000092
C    21.27000046   4.61000013  54.33000183
C    17.12000084   4.26999998  53.34000015
C    16.53000069   3.53999996  54.40999985
C    15.19000053   3.14000010  54.38999939
C    25.05000114   4.77999973  53.82999802
H    25.56371880   5.17242527  54.70760727
H    20.52999878   3.52999973  56.07999802
H    19.18000031   5.53999996  51.77999878
H    21.44000053   6.14000034  51.23000336
H    23.85000038   5.88000011  51.63000107
H    23.00000000   4.23999977  55.51000214
H    14.82999992   2.72000027  55.31999969
H    25.55999947   5.03999996  52.90000153
H    25.03999901   3.68000007  53.72000122
