96

S    16.88999939   8.76999950  58.50999832
C    19.59000015   8.78000069  57.90999985
C    18.34000015   8.30000019  57.60000229
C    17.97999954   7.81000042  56.30000305
C    18.96999931   7.67000008  55.34999847
C    20.30999947   8.06999969  55.61000061
C    21.35000038   7.92000008  54.65999985
C    22.67000008   8.19999981  54.97000122
C    22.88999939   8.80999947  56.23000336
C    21.90999985   9.07999992  57.15000153
C    20.58000183   8.63000011  56.90999985
C    16.54000092   7.73000002  56.09000397
C    15.81999969   8.25000000  57.18999863
C    14.47000027   8.56999969  57.18999863
C    24.30000114   9.17000008  56.65999985
H    24.72671318   8.55126572  57.44942093
H    19.78999901   9.30999947  58.83999634
H    18.76000023   7.20000029  54.38999939
H    21.21000099   7.48000050  53.68000031
H    23.45000076   8.15999985  54.22000122
H    22.22999954   9.53999996  58.08000183
H    13.92000008   8.88000011  58.08000183
H    24.90999985   9.19999981  55.75000000
H    24.17000008  10.21000004  56.98999786
S    13.30999947   7.07999992  53.72000122
C    10.67000008   7.03999996  54.38999939
C    11.90000057   7.57000017  54.68000031
C    12.30000019   8.11999989  55.93999863
C    11.26000023   8.34000015  56.83000183
C     9.92000008   7.99000025  56.53999710
C     8.85000038   8.23999977  57.44999695
C     7.57999992   7.81000042  57.15000153
C     7.30999994   7.07999992  55.97000122
C     8.30999947   6.81999969  55.05000305
C     9.61999989   7.28999996  55.31999969
C    13.75000000   8.21000004  56.04999924
C    14.45000076   7.57000017  54.99000168
C    15.80999947   7.30999994  54.97000122
C     5.88999987   6.61999989  55.72999954
H     5.39126444   7.21848249  54.96764755
H    10.48999977   6.43000031  53.50999832
H    11.39000034   8.85000038  57.77999878
H     9.07999992   8.61999989  58.43999863
H     6.80999994   7.88000011  57.90999985
H     8.14000034   6.32999992  54.09999847
H    16.28000069   6.90999985  54.08000183
H     5.35000038   6.63000011  56.68000031
H     5.98000002   5.56999969  55.40999985
S    13.59000015   5.19000006  50.90999985
C    10.88999939   4.59000015  51.35000229
C    12.20000076   4.51000023  51.77999878
C    12.61000061   3.91000009  53.02000046
C    11.61999893   3.40999985  53.85000229
C    10.26999950   3.58999991  53.47999954
C     9.22999954   3.02999997  54.27000046
C     7.90000010   3.16000009  53.92000198
C     7.49000025   3.84000015  52.75000000
C     8.48999977   4.23000002  51.88000107
C     9.86999989   4.11999989  52.21000290
C    14.04000092   3.97000027  53.25000000
C    14.70000076   4.65000010  52.19999695
C    16.02000046   5.07000017  52.21000290
C     6.03999996   4.23000002  52.58999634
H     5.55505705   3.77358294  51.72708511
H    10.67000008   5.03000021  50.38000107
H    11.87000084   2.79000020  54.71000290
H     9.48999977   2.50999975  55.19000244
H     7.11999989   2.72000027  54.54000092
H     8.30000019   4.73000002  50.93000031
H    16.46000099   5.51999998  51.32999802
H     5.53999996   4.00000000  53.54999924
H     6.03999996   5.32000017  52.56999969
S    17.35000038   3.60000014  55.65000153
C    20.00999832   4.11000013  55.02999878
C    18.68000031   4.35999966  54.75000000
C    18.20999908   4.92000008  53.52000427
C    19.17000008   5.38999987  52.64999771
C    20.55999947   5.14999962  52.83000183
C    21.56999969   5.59999990  51.95000076
C    22.86999893   5.51999998  52.37999725
C    23.29999924   4.73000002  53.47999954
C    22.32000160   4.21000004  54.29999924
C    20.95999908   4.55000019  54.08000183
C    16.77000046   4.76000023  53.34999847
C    16.18000031   3.97000027  54.36999893
C    14.85000038   3.54999995  54.31999969
C    24.79000092   4.53000021  53.63999939
H    25.16709900   4.89998293  54.59341812
H    20.32999992   3.51000023  55.87999725
H    18.89000130   5.95000029  51.77000046
H    21.28999901   6.17999983  51.05999756
H    23.64000130   6.01999998  51.79999924
H    22.53000069   3.42000008  55.01999664
H    14.40999985   2.89999986  55.06000137
H    25.28000069   5.07999992  52.81999969
H    25.07999802   3.48000002  53.56999969
