96

S    17.15999985   9.01000023  58.70999908
C    19.85999870   9.19999981  57.98999786
C    18.60000038   8.71999931  57.70999908
C    18.30000114   8.10999966  56.45000076
C    19.31999969   7.96999979  55.52999878
C    20.65000153   8.38000011  55.80999756
C    21.63000107   8.39999962  54.78000259
C    22.95000076   8.63000011  55.10000229
C    23.26000023   9.07999992  56.40999603
C    22.27000046   9.32999992  57.34000397
C    20.94000053   8.88000011  57.12999725
C    16.86000061   8.13000011  56.19999695
C    16.13000107   8.52000046  57.35000229
C    14.75000000   8.63000011  57.37999725
C    24.63999939   9.61999989  56.70000076
H    25.06704903   9.07195282  57.53986740
H    19.97999954   9.94999981  58.76999664
H    19.15999985   7.65999985  54.50000000
H    21.37000084   8.15999985  53.75999832
H    23.81000137   8.47999954  54.47000122
H    22.39999962   9.72999954  58.34000015
H    14.14999962   8.65999985  58.27999878
H    25.35000038   9.63999939  55.86000061
H    24.43000031  10.67000008  56.90999985
S    13.61999989   7.46000004  53.70999908
C    10.95999908   7.28999996  54.40000153
C    12.22000027   7.68000031  54.79000092
C    12.58999920   8.14999962  56.09000397
C    11.56000042   8.25000000  57.01000214
C    10.24000072   7.90000010  56.62000275
C     9.19000053   8.05000019  57.56000137
C     7.88999987   7.76999998  57.19999695
C     7.53000021   7.13000011  55.97999954
C     8.57999992   6.84000015  55.13999939
C     9.89999962   7.34000015  55.34000015
C    14.02999973   8.30000019  56.22000122
C    14.70999908   8.03999996  54.99000168
C    16.09000015   8.02999973  55.04000092
C     6.09000015   6.83000040  55.63999939
H     5.58487272   7.51298904  54.95701218
H    10.84000015   6.86999989  53.40000153
H    11.82000065   8.56000042  58.01000214
H     9.36999989   8.52000046  58.52000427
H     7.13999987   8.00000000  57.95000076
H     8.22000027   6.28000021  54.27999878
H    16.60000038   7.69999981  54.13999939
H     5.44000053   6.88000011  56.52000046
H     6.05000019   5.79999971  55.27999878
S    14.19000053   5.29999971  50.81999969
C    11.51000023   4.77999973  51.47999573
C    12.84999943   4.65999985  51.77999878
C    13.30999947   4.23000002  53.06999969
C    12.35000038   3.78999996  53.95999908
C    10.97000027   3.82999992  53.64999771
C     9.94000053   3.32999992  54.51000214
C     8.60000038   3.35999990  54.19000244
C     8.18000031   4.09999990  53.04999924
C     9.11999989   4.48999977  52.12999725
C    10.52000046   4.38000011  52.39999771
C    14.72000027   4.50000000  53.29999924
C    15.31999969   5.12000036  52.18000031
C    16.63999939   5.55000019  52.11000061
C     6.71999979   4.36999989  52.78999710
H     6.39985514   4.06408405  51.79399490
H    11.21000099   5.32999992  50.59000015
H    12.60000038   3.45999980  54.95999908
H    10.36999893   2.86000013  55.38999939
H     7.88999987   2.93000007  54.88999939
H     8.86999989   4.88999987  51.14999771
H    17.10000038   5.89999962  51.18999863
H     6.06999969   3.75999975  53.43000031
H     6.44000006   5.40999985  52.97000122
S    18.12999916   4.17000008  55.54000092
C    20.78000069   4.51000023  54.71000290
C    19.44000053   4.67999983  54.45999908
C    18.88000107   5.26999998  53.27999878
C    19.79999924   5.59999990  52.30999756
C    21.21000099   5.58000040  52.50000000
C    22.18000031   6.06999969  51.58000183
C    23.52000046   6.01000023  51.88000107
C    23.97000122   5.52999973  53.13000107
C    23.06999969   4.96000004  54.00000000
C    21.68000031   4.98000002  53.72000122
C    17.42000008   5.23000002  53.22000122
C    16.86000061   4.65999985  54.38999939
C    15.53999996   4.23000002  54.40000153
C    25.36000061   5.89999962  53.61000061
H    25.67530632   5.26938438  54.44126892
H    21.14999962   4.09999990  55.65000153
H    19.47999954   5.89999962  51.31000137
H    21.86000061   6.44000006  50.59999847
H    24.13999939   6.57000017  51.18999863
H    23.36000061   4.77999973  55.04000092
H    15.21000004   3.50000000  55.13000107
H    25.36999893   6.96000004  53.88999939
H    26.02999878   5.89999962  52.74000168
