96

S    16.82999992   8.51000023  59.06000137
C    19.55000114   8.55000019  58.39000320
C    18.27000046   8.14000034  58.09999847
C    17.84000015   7.63999987  56.83000183
C    18.81000137   7.46000004  55.86000061
C    20.15999985   7.82000017  56.09000397
C    21.12999916   7.88999987  55.06000137
C    22.39000130   8.40999985  55.26000214
C    22.79999924   8.75000000  56.58000183
C    21.90000153   8.61999989  57.60000229
C    20.52000046   8.31999969  57.38999939
C    16.39999962   7.71000004  56.59000015
C    15.70000076   8.14000034  57.74000168
C    14.32000065   8.32999992  57.70999908
C    24.25000000   9.03999996  56.91999817
H    24.60643005   8.35565472  57.68988800
H    19.77000046   9.10000038  59.31000137
H    18.53999901   7.23000002  54.82999802
H    20.78000069   7.50999975  54.09999847
H    23.19000053   8.38999939  54.52999878
H    22.11999893   8.82000065  58.64999771
H    13.83999920   8.73999977  58.60000229
H    24.94999886   8.93000031  56.07999802
H    24.30999947  10.06000042  57.34000397
S    13.25000000   7.17000008  54.05000305
C    10.52999973   7.30000019  54.65000153
C    11.82999992   7.53999996  55.05000305
C    12.18999958   7.92000008  56.38000107
C    11.18999958   8.15999985  57.29999924
C     9.84000015   7.88999987  56.97999954
C     8.71000004   8.01000023  57.83000183
C     7.42999983   7.67000008  57.45999908
C     7.11999989   7.25000000  56.13999939
C     8.19000053   7.17000008  55.27000046
C     9.52000046   7.49000025  55.63000107
C    13.63999939   7.94000053  56.56000137
C    14.34000015   7.50999975  55.40000153
C    15.72999954   7.40999985  55.40000153
C     5.72000027   6.80999994  55.79999924
H     5.35700798   7.33669424  54.91743088
H    10.31999969   6.86999989  53.68000031
H    11.49000072   8.38999939  58.31999969
H     8.92000008   8.27000046  58.86000061
H     6.58999968   7.69000006  58.15999985
H     8.07999992   6.83000040  54.23999786
H    16.28999901   7.11999989  54.52000046
H     5.12000036   7.07000017  56.68000031
H     5.69000006   5.73000002  55.61999893
S    17.46999931   9.03999996  52.95000076
C    20.17000008   9.46000004  52.15000153
C    18.88000107   9.06999969  51.86999893
C    18.53999901   8.65999985  50.54000092
C    19.54000092   8.47999954  49.61000061
C    20.88000107   8.84000015  49.88999939
C    21.87000084   8.63000011  48.89999771
C    23.19000053   8.69000053  49.27000046
C    23.52999878   9.26000023  50.52999878
C    22.59000015   9.61000061  51.45999908
C    21.21999931   9.26999950  51.23000336
C    17.10000038   8.43999958  50.44000244
C    16.35000038   8.80999947  51.59000015
C    14.98000050   8.76999950  51.77999878
C    24.97999954   9.59999943  50.81999969
H    25.39360046   9.11508846  51.70424652
H    20.50000000   9.81999969  53.11999893
H    19.29999924   7.88000011  48.73000336
H    21.47000122   8.21000004  47.97000122
H    23.95000076   8.26000023  48.61999893
H    22.88999939  10.01999950  52.42000198
H    14.53999996   9.06000042  52.72999573
H    25.69000053   9.56999969  49.99000168
H    24.99000168  10.67999935  51.02000427
S    13.86000061   7.51999950  48.09999847
C    11.16000080   7.39000034  48.77999878
C    12.43999958   7.69999981  49.15999985
C    12.79999924   8.23999977  50.43000031
C    11.73999977   8.53999996  51.25999832
C    10.40999985   8.14999962  50.94999695
C     9.26000023   8.30000019  51.77000046
C     7.97999954   8.03999996  51.33999634
C     7.72000027   7.44000006  50.07999802
C     8.76999950   7.26999998  49.20000076
C    10.07999992   7.57999992  49.66999817
C    14.22999954   8.38000011  50.66999817
C    14.88000011   8.02999973  49.45999908
C    16.27000046   8.05000019  49.38000107
C     6.32999992   7.02000046  49.65999985
H     5.95469522   7.60065937  48.81733704
H    10.97000027   7.03999996  47.76000214
H    11.96000004   9.07999992  52.18000031
H     9.43000031   8.73000050  52.75000000
H     7.13999987   8.25000000  52.00000000
H     8.60999966   6.74000025  48.27000046
H    16.69000053   7.69999981  48.44999695
H     5.65000010   7.11000013  50.52000046
H     6.32000017   5.97000027  49.34999847
