96

S    16.94000053   8.64999962  58.63999939
C    19.60000038   8.51000023  57.95000076
C    18.30000114   8.23999977  57.57999802
C    17.89999962   7.64999962  56.33999634
C    18.94000053   7.36999989  55.48999786
C    20.29000092   7.68000031  55.79999924
C    21.21999931   7.42999983  54.75999832
C    22.56000137   7.57999992  55.02999878
C    22.95000076   8.28999996  56.19999695
C    22.04999924   8.56000042  57.19999695
C    20.68000031   8.19000053  57.09000015
C    16.45000076   7.53999996  56.23000336
C    15.81999969   8.10000038  57.36999893
C    14.44000053   8.19000053  57.43000031
C    24.41999817   8.52999973  56.44000244
H    24.79513741   7.85758209  57.21150970
H    19.70999908   9.10000038  58.86000061
H    18.77000046   6.98999977  54.47999954
H    20.88000107   6.89000034  53.88000107
H    23.35000038   7.04999971  54.48999786
H    22.27000046   9.15999985  58.08000183
H    13.93000031   8.56000042  58.31999969
H    25.02000046   8.50000000  55.52000046
H    24.37999916   9.56999969  56.76000214
S    13.17000008   6.93000031  53.86000061
C    10.50000000   7.07000017  54.75999832
C    11.82999992   7.36999989  54.93999863
C    12.27000046   7.82000017  56.23000336
C    11.38000011   8.11999989  57.25000000
C    10.01000023   7.82000017  57.02000046
C     9.06000042   8.01999950  58.06000137
C     7.73000002   7.76999998  57.83000183
C     7.23000002   7.35000038  56.56000137
C     8.13000011   7.09999990  55.56000137
C     9.52999973   7.31999969  55.76000214
C    13.71999931   7.78999996  56.30000305
C    14.34999943   7.32999992  55.12000275
C    15.71000004   7.03000021  55.14999771
C     5.78999996   7.00000000  56.27999878
H     5.49872828   7.52570963  55.37066269
H    10.19000053   6.56000042  53.85000229
H    11.84000015   8.42000008  58.18999863
H     9.43000031   8.30999947  59.03999710
H     7.07000017   7.82000017  58.68999863
H     7.82000017   6.67999983  54.61000061
H    16.25000000   6.38999987  54.45999908
H     5.13000011   7.26000023  57.11000061
H     5.59000015   5.97000027  55.97000122
S    13.60999966   4.67000008  50.97999954
C    10.93000031   4.53999996  51.70000076
C    12.23000050   4.21999979  52.00000000
C    12.61999989   3.72000003  53.29000092
C    11.61999893   3.24000001  54.10999680
C    10.26000023   3.50000000  53.80000305
C     9.21000004   3.14000010  54.68999863
C     7.90000010   3.35999990  54.33000183
C     7.55999994   4.03999996  53.13000107
C     8.52999973   4.48999977  52.27000427
C     9.88000011   4.17000008  52.57999802
C    14.06000042   3.81000018  53.47999954
C    14.73000050   4.21999979  52.29000092
C    16.10000038   4.41000032  52.29000092
C     6.11999989   4.28999996  52.74000168
H     5.76635790   4.02830505  51.74272919
H    10.67999935   5.00999975  50.75000000
H    11.78999996   2.75000000  55.06000137
H     9.61000061   2.61000013  55.54999924
H     7.09999990   3.08999991  55.00999832
H     8.34999943   5.13999987  51.40999603
H    16.50000000   4.71000004  51.31999969
H     5.56999969   3.75999975  53.53000259
H     6.14000034   5.38000011  52.81000137
S    17.43999863   3.38000011  55.86000061
C    20.15000153   3.86000013  55.06999969
C    18.78999901   3.95000005  54.85000229
C    18.34000015   4.39000034  53.56999969
C    19.25000000   4.65000010  52.56000137
C    20.63999939   4.59000015  52.77000046
C    21.68000031   4.92999983  51.84999847
C    23.01000214   4.72000027  52.11000061
C    23.43000031   4.35999966  53.41999817
C    22.49000168   4.11999989  54.40000153
C    21.09999847   4.21999979  54.09000015
C    16.88999939   4.30000019  53.43999863
C    16.28000069   3.65999985  54.54999924
C    14.89999962   3.51000023  54.55999756
C    24.89999962   4.11000013  53.68999863
H    25.23574638   4.45289183  54.66867065
H    20.42000008   3.51999998  56.05999756
H    18.92000008   4.94999981  51.56999969
H    21.47999954   5.36999989  50.87999725
H    23.81000137   5.07000017  51.46999741
H    22.76000023   3.81000018  55.40000153
H    14.51000023   3.07000017  55.47000122
H    25.46999931   4.61000013  52.88999939
H    25.27000046   3.07999992  53.64999771
