96

S    16.81999969   8.47000027  58.67000198
C    19.48999977   8.52000046  58.02000046
C    18.23999977   8.06999969  57.67000198
C    17.84000015   7.55000019  56.39999771
C    18.86000061   7.31999969  55.50000000
C    20.20000076   7.62000036  55.86000061
C    21.24000168   7.37999964  54.92000198
C    22.53000069   7.73000002  55.22999573
C    22.88999939   8.28999996  56.49000168
C    21.90000153   8.51000023  57.42000198
C    20.53999901   8.19000053  57.12999725
C    16.39000130   7.53000021  56.25000000
C    15.67999935   7.94000053  57.41000366
C    14.30999947   8.14000034  57.48000336
C    24.31999969   8.73999977  56.69000244
H    24.78583908   8.16123009  57.48757553
H    19.60000038   9.10000038  58.93000031
H    18.67000008   6.84000015  54.54000092
H    20.84000015   7.28999996  53.92000198
H    23.22000122   7.79999971  54.40000153
H    22.17000008   9.02000046  58.34000015
H    13.86999989   8.51000023  58.40000153
H    24.89000130   8.57999992  55.77000046
H    24.25000000   9.81000042  56.91999817
S    13.00000000   6.98999977  53.93000031
C    10.40999985   6.71999979  54.85000229
C    11.67000008   7.23999977  55.07999802
C    12.13000107   7.86999989  56.27999878
C    11.21999931   8.03999996  57.30999756
C     9.86999989   7.69000006  57.11000061
C     8.82999992   7.86000013  58.06000137
C     7.49000025   7.71000004  57.78999710
C     7.11000013   7.05999947  56.59000015
C     8.10999966   6.72999954  55.70000076
C     9.50000000   6.98999977  55.90999985
C    13.57999992   7.90000010  56.30000305
C    14.22999954   7.42000008  55.13999939
C    15.60999966   7.25000000  55.13000107
C     5.66999960   6.84000015  56.18000031
H     5.29351854   7.29461956  55.26365662
H    10.03999901   6.26999950  53.94000244
H    11.51999950   8.45000076  58.27999878
H     9.15000057   8.17000008  59.05000305
H     6.75000000   8.13000011  58.47000122
H     7.86999989   6.25000000  54.75999832
H    16.11999893   6.84000015  54.27000046
H     5.01999950   7.23999977  56.95999908
H     5.50000000   5.77000046  56.00000000
S    13.80000019   4.92000008  51.02000427
C    11.13000011   4.51000023  51.60999680
C    12.43999958   4.34999990  52.00000000
C    12.81999969   3.72000003  53.22999954
C    11.79999924   3.22000003  54.02000046
C    10.44000053   3.47000003  53.74000168
C     9.39000034   2.96999979  54.56999969
C     8.10000038   3.15000010  54.13000107
C     7.76000023   3.91999984  52.97999954
C     8.75000000   4.36999989  52.14000320
C    10.10000038   4.13000011  52.50999832
C    14.26000023   3.86000013  53.41999817
C    14.91000080   4.53000021  52.35000229
C    16.26000023   4.81999969  52.25999832
C     6.32000017   4.30999994  52.77000046
H     5.77209330   3.91152215  51.91611862
H    10.93000031   5.09999990  50.72000122
H    11.94000053   2.49000001  54.81999969
H     9.51000023   2.38999987  55.47999954
H     7.31999969   2.66000009  54.71000290
H     8.48999977   4.94000006  51.25000000
H    16.67000008   5.50000000  51.52000046
H     5.84000015   4.11999989  53.74000168
H     6.35999966   5.38999987  52.60000229
S    17.68000031   3.12999988  55.54999924
C    20.31999969   3.58000016  54.85000229
C    18.98999977   3.73000002  54.52000046
C    18.48999977   4.35999966  53.34000015
C    19.37000084   4.92999983  52.43999863
C    20.75000000   4.88000011  52.76000214
C    21.70999908   5.40999985  51.86999893
C    23.06999969   5.22000027  52.04000092
C    23.54999924   4.61999989  53.22999954
C    22.63000107   4.17000008  54.13999939
C    21.21999931   4.19000006  53.94000244
C    17.02999878   4.30000019  53.30999756
C    16.42000008   3.63000011  54.40000153
C    15.06000042   3.38000011  54.45999908
C    25.02000046   4.36999989  53.50999832
H    25.42537689   4.79671335  54.42743301
H    20.75000000   3.07000017  55.70999908
H    19.02000046   5.51999998  51.59999847
H    21.40000153   5.84999990  50.91999817
H    23.77000046   5.40000010  51.23000336
H    23.02999878   3.75000000  55.06000137
H    14.60999966   2.68000007  55.15999603
H    25.62000084   4.65000010  52.63999939
H    25.29999924   3.30999994  53.53000259
