96

S    16.57999992   8.19999981  58.68999863
C    19.22999954   8.34000015  57.98999786
C    17.98999977   7.83999968  57.67000198
C    17.64000130   7.17999983  56.45000076
C    18.65999985   7.11000013  55.51000214
C    19.96000099   7.57999992  55.79999924
C    20.98999977   7.46000004  54.81999969
C    22.26000023   7.95000029  55.06000137
C    22.60000038   8.43999958  56.33999634
C    21.63999939   8.55000019  57.31999969
C    20.30999947   8.10999966  57.09000015
C    16.20000076   7.21000004  56.23000336
C    15.51000023   7.73999977  57.35000229
C    14.17000008   8.10999966  57.29999924
C    24.04999924   8.86999989  56.45999908
H    24.53523254   8.22778034  57.19498444
H    19.31999969   9.07999992  58.77999878
H    18.40999985   6.65999985  54.55999756
H    20.81999969   7.13000011  53.80000305
H    22.90999985   7.90999985  54.19000244
H    21.80000114   9.07999992  58.26000214
H    13.61999989   8.36999989  58.20000076
H    24.54999924   8.73999977  55.48999786
H    24.14999962   9.86999989  56.90000153
S    13.05999947   6.98000002  53.63999939
C    10.38000011   6.84000015  54.45999908
C    11.69000053   7.16000032  54.73999786
C    12.05000019   7.72000027  56.00999832
C    11.10000038   7.75000000  57.02000046
C     9.72999954   7.63999987  56.70000076
C     8.65999985   7.92000008  57.60000229
C     7.35000038   7.79999971  57.18999863
C     6.98000002   7.17999983  55.97000122
C     8.00000000   6.90999985  55.08999634
C     9.36999989   7.11999989  55.40999985
C    13.48999977   7.86999989  56.10000229
C    14.18000031   7.44000006  54.93999863
C    15.53999996   7.16000032  54.99000168
C     5.51999998   7.04999971  55.63000107
H     5.26539373   7.44605350  54.64693451
H    10.26000023   6.38000011  53.47999954
H    11.31000042   7.88000011  58.08000183
H     8.93000031   8.27000046  58.59000397
H     6.57999992   8.03999996  57.91999817
H     7.69000006   6.61000013  54.09000015
H    16.11999893   7.00999975  54.09000015
H     4.90999985   7.32999992  56.50000000
H     5.32000017   5.97000027  55.58000183
S    17.39999962   9.00000000  52.78999710
C    20.06999969   9.07999992  52.11999893
C    18.81000137   8.61999989  51.77999878
C    18.46999931   8.06999969  50.51000214
C    19.47000122   7.92999983  49.56999969
C    20.79999924   8.32999992  49.86000061
C    21.84000015   8.17000008  48.90999603
C    23.12999916   8.53999996  49.22000122
C    23.39999962   9.02999973  50.52000046
C    22.44999886   9.11000061  51.52000046
C    21.09999847   8.82000065  51.18000031
C    17.02999878   7.95000029  50.33000183
C    16.35000038   8.47000027  51.45999908
C    14.96999931   8.57999992  51.40999603
C    24.82999992   9.40999985  50.86000061
H    25.31408501   8.71235180  51.54341125
H    20.25000000   9.61000061  53.04999924
H    19.23999977   7.76000023  48.52000427
H    21.51000023   7.75000000  47.95999908
H    23.90999985   8.36999989  48.47999954
H    22.69000053   9.59999943  52.45999908
H    14.47999954   8.89000034  52.32999802
H    25.48000145   9.46000004  49.98000336
H    24.67000008  10.39999962  51.31999969
S    13.89000034   7.42000008  47.84000015
C    11.13999939   7.35000038  48.43000031
C    12.43000031   7.59999990  48.83999634
C    12.77999973   8.10000038  50.13000107
C    11.72000027   8.30000019  50.98999786
C    10.38000011   8.10999966  50.59999847
C     9.23999977   8.36999989  51.42000198
C     7.97999954   7.99000025  51.03000259
C     7.73999977   7.53999996  49.69999695
C     8.73999977   7.40999985  48.76999664
C    10.05000019   7.55999994  49.31000137
C    14.22000027   8.26000023  50.27000046
C    15.00000000   7.88999987  49.15000153
C    16.36999893   7.63000011  49.13000107
C     6.38999987   6.94000006  49.38999939
H     5.81907654   7.59656239  48.73343658
H    10.95999908   6.94999981  47.43000031
H    11.82000065   8.80000019  51.95000076
H     9.51000023   8.69999981  52.42000198
H     7.20000029   7.82000017  51.76000214
H     8.64000034   6.98000002  47.77000046
H    16.87999916   7.20000029  48.27999878
H     5.80999947   6.83000040  50.31999969
H     6.51999998   5.89999962  49.08000183
