96

S    16.90000153   8.47999954  58.60000229
C    19.56999969   8.67000008  57.94000244
C    18.32999992   8.19999981  57.58999634
C    17.94000053   7.76999998  56.27999878
C    18.94000053   7.73999977  55.33000183
C    20.25000000   8.15999985  55.63999939
C    21.35000038   8.10000038  54.73999786
C    22.65999985   8.31999969  55.08999634
C    22.89999962   8.98999977  56.31999969
C    21.87000084   9.22000027  57.21000290
C    20.59000015   8.67999935  56.93999863
C    16.50000000   7.73000002  56.07999802
C    15.80999947   8.21000004  57.22000122
C    14.42999935   8.30000019  57.34000397
C    24.30000114   9.39999962  56.70999908
H    24.79720879   8.73942280  57.42029572
H    19.67000008   9.18000031  58.88999939
H    18.70000076   7.39000034  54.33000183
H    21.18999863   7.72000027  53.73000336
H    23.46999931   7.88000011  54.51000214
H    21.97000122   9.65999985  58.20000076
H    13.93000031   8.69000053  58.20999908
H    24.86999893   9.53999996  55.79000092
H    24.34000015  10.44999981  57.02999878
S    13.20000076   7.17999983  53.73000336
C    10.47999954   7.17999983  54.45999908
C    11.79999924   7.37999964  54.80999756
C    12.23999977   7.76000023  56.11999893
C    11.25000000   7.88000011  57.06999969
C     9.86999989   7.69999981  56.79000092
C     8.85000038   7.92000008  57.76000214
C     7.53999996   7.76000023  57.37999725
C     7.16000032   7.40000010  56.05999756
C     8.13000011   7.11000013  55.12000275
C     9.48999977   7.36000013  55.45000076
C    13.68000031   7.81000042  56.25999832
C    14.34999943   7.49000025  55.05000305
C    15.72999954   7.35000038  54.95999908
C     5.72000027   6.98999977  55.90999985
H     5.30046988   7.56596470  55.08515930
H    10.26999950   6.74000025  53.48999786
H    11.64000034   8.14000034  58.04999924
H     9.02999973   8.23999977  58.77999878
H     6.75000000   8.10000038  58.04999924
H     8.10000038   6.61000013  54.15000153
H    16.26000023   6.88000011  54.13999939
H     5.21000004   7.13999987  56.86999893
H     5.63000011   5.92999983  55.65000153
S    16.88999939   9.26000023  52.69000244
C    19.63000107   9.02000046  52.02999878
C    18.30999947   8.78000069  51.72999954
C    17.95999908   8.21000004  50.47000122
C    18.97999954   7.81000042  49.61999893
C    20.32999992   8.17000008  49.85000229
C    21.35999870   7.92999983  48.89999771
C    22.65000153   8.30999947  49.15000153
C    22.98999977   8.97999954  50.34999847
C    22.04000092   9.13999939  51.32999802
C    20.66999817   8.82999992  51.07999802
C    16.53000069   8.23999977  50.20000076
C    15.86999989   8.85000038  51.30000305
C    14.48999977   9.02999973  51.31000137
C    24.36000061   9.59999943  50.52000046
H    25.06915474   8.99721909  51.08732224
H    19.90999985   9.38000011  53.02000046
H    18.76000023   7.48000050  48.61000061
H    21.09999847   7.73000002  47.85999680
H    23.40999985   8.15999985  48.37999725
H    22.27999878   9.70000076  52.22999954
H    13.96999931   9.22999954  52.23999786
H    24.70999908   9.77999973  49.50000000
H    24.30999947  10.62000084  50.93000031
S    13.35000038   7.26000023  47.91999817
C    10.69000053   7.31999969  48.80000305
C    12.00000000   7.69999981  48.97999573
C    12.35000038   8.39999962  50.18000031
C    11.42000008   8.56999969  51.18999863
C    10.06999969   8.19000053  50.98999786
C     9.06000042   8.43000031  51.97000122
C     7.75000000   8.13000011  51.68000031
C     7.40000010   7.46999979  50.47000122
C     8.36000061   7.03999996  49.58000183
C     9.68000031   7.53000021  49.78000259
C    13.78999901   8.64000034  50.15999603
C    14.45000076   8.05000019  49.06000137
C    15.81999969   7.79999971  49.06999969
C     5.95000029   7.20000029  50.14999771
H     5.63743591   7.78250647  49.28334427
H    10.38000011   6.84999990  47.87000275
H    11.68000031   9.06000042  52.12999725
H     9.26000023   8.98999977  52.87000275
H     7.03999996   8.38999939  52.45999908
H     8.10000038   6.39999962  48.74000168
H    16.26000023   7.21000004  48.27000046
H     5.26999998   7.40999985  50.98999786
H     5.72000027   6.17999983  49.81999969
