96

S    16.95999908   8.40999985  58.88999939
C    19.62000084   8.61999989  58.25000000
C    18.36000061   8.27000046  57.81000137
C    17.97000122   7.86999989  56.50000000
C    18.98999977   7.73999977  55.56999969
C    20.31999969   8.07999992  55.94999695
C    21.35999870   7.97999954  54.99000168
C    22.69000053   8.15999985  55.31000137
C    23.00000000   8.60999966  56.60999680
C    22.01999855   8.76999950  57.56000137
C    20.63999939   8.56000042  57.25999832
C    16.53000069   7.78999996  56.32999802
C    15.85000038   8.13000011  57.52999878
C    14.47000027   8.27999973  57.60000229
C    24.40999985   9.02999973  57.00000000
H    24.80327034   8.32926559  57.73648453
H    19.79999924   8.76999950  59.31000137
H    18.63999939   7.46999979  54.58000183
H    20.98999977   7.63999987  54.02000046
H    23.48999977   7.94000053  54.61000061
H    22.22999954   9.18000031  58.54000092
H    14.07999992   8.52000046  58.57999802
H    25.09000015   9.02999973  56.13999939
H    24.57999992  10.03000069  57.39999771
S    13.30000019   7.42000008  53.89999771
C    10.62999916   7.11999989  54.56999969
C    11.87999916   7.55000019  54.95999908
C    12.27000046   7.86999989  56.30000305
C    11.23999977   7.86000013  57.22999954
C     9.89000034   7.69000006  56.83000183
C     8.85999966   7.76000023  57.81000137
C     7.55000019   7.44000006  57.51999664
C     7.23000002   7.09999990  56.18000031
C     8.23000050   6.93000031  55.24000168
C     9.59999943   7.11000013  55.54999924
C    13.69999981   8.03999996  56.45000076
C    14.40000057   7.73999977  55.25000000
C    15.76000023   7.44000006  55.21999741
C     5.78999996   6.80000019  55.81999969
H     5.45564890   7.49715757  55.05170059
H    10.38000011   6.88000011  53.54000092
H    11.42000008   8.01999950  58.29000092
H     9.13999939   7.96000004  58.83999634
H     6.80000019   7.73000002  58.25000000
H     7.86999989   6.61999989  54.26000214
H    16.17000008   6.98999977  54.31999969
H     5.01999950   6.81999969  56.59999847
H     5.82999992   5.75000000  55.51000214
S    13.64999962   5.22000027  50.90999985
C    10.93000031   4.67000008  51.56000137
C    12.28000069   4.51999998  51.79999924
C    12.69999981   3.96000004  53.04000092
C    11.75000000   3.38999987  53.88000107
C    10.36999893   3.42999983  53.56999969
C     9.43000031   2.92000008  54.52000046
C     8.10000038   3.21000004  54.36000061
C     7.65999985   4.00999975  53.27000046
C     8.55000019   4.55000019  52.37999725
C     9.94000053   4.21999979  52.45999908
C    14.13000011   4.15000010  53.22999954
C    14.80000019   4.88000011  52.22000122
C    16.17000008   5.10999966  52.18000031
C     6.19999981   4.39000034  53.13000107
H     5.67910004   3.94759202  52.28086090
H    10.62000084   5.25000000  50.68999863
H    12.06999969   3.02999997  54.85000229
H     9.88000011   2.53999996  55.43000031
H     7.39000034   2.98000002  55.14999771
H     8.26000023   5.31000042  51.65000153
H    16.67000008   5.38000011  51.25000000
H     5.68000031   4.13000011  54.06000137
H     6.12999964   5.47999954  53.13999939
S    17.38999939   3.45000005  55.59000015
C    20.06000137   3.88000011  54.97000122
C    18.75000000   4.26000023  54.79000092
C    18.34000015   4.90000010  53.56999969
C    19.34000015   5.36000013  52.72999573
C    20.71000099   5.14999962  53.00000000
C    21.77000046   5.42000008  52.09000015
C    23.06999969   5.05000019  52.29000092
C    23.45000076   4.36999989  53.47999954
C    22.46000099   3.98999977  54.34999847
C    21.09999847   4.36999989  54.13999939
C    16.90999985   4.77999973  53.33000183
C    16.27000046   4.03999996  54.34999847
C    14.93999958   3.63999987  54.25000000
C    24.92000198   4.09000015  53.74000168
H    25.30988693   4.56495380  54.64028549
H    20.31999969   3.23000002  55.79999924
H    19.05999947   5.69000006  51.72999954
H    21.47999954   6.05000019  51.25000000
H    23.77000046   5.25000000  51.47999573
H    22.70000076   3.35000014  55.20000076
H    14.47999954   3.01999998  55.01999664
H    25.55999947   4.32999992  52.88000107
H    24.96000099   3.00000000  53.86000061
