96

S    16.79000092   8.36999989  58.82999802
C    19.50000000   8.30999947  58.20999908
C    18.20000076   8.05000019  57.81999969
C    17.72999954   7.69999981  56.51000214
C    18.78000069   7.48000050  55.63999939
C    20.12000084   7.82000017  55.91999817
C    21.12999916   7.63999987  54.92000198
C    22.43000031   7.96999979  55.21999741
C    22.82999992   8.51000023  56.46999741
C    21.87000084   8.64999962  57.43999863
C    20.51000214   8.27999973  57.22000122
C    16.28000069   7.63000011  56.37000275
C    15.60999966   7.97999954  57.56999969
C    14.22000027   8.09000015  57.68000031
C    24.21999931   9.07999992  56.60999680
H    24.70459747   8.48850441  57.38678360
H    19.70999908   8.80999947  59.15000153
H    18.59000015   7.07000017  54.65000153
H    20.88000107   7.22000027  53.95000076
H    23.15000153   7.90000010  54.40999985
H    22.06000137   9.07999992  58.41999817
H    13.82999992   8.51000023  58.60000229
H    24.79000092   8.92000008  55.68000031
H    24.07999992  10.13000011  56.90000153
S    13.02000046   7.11999989  54.01000214
C    10.31000042   7.02000046  54.65000153
C    11.59000015   7.34000015  55.05000305
C    12.03999996   7.73999977  56.35000229
C    11.00000000   7.88000011  57.25999832
C     9.64999962   7.57999992  56.98999786
C     8.60999966   7.59000015  57.97000122
C     7.31999969   7.28999996  57.60000229
C     6.97000027   6.94999981  56.26999664
C     7.97999954   6.89000034  55.33000183
C     9.30999947   7.26999998  55.63000107
C    13.48000050   7.78999996  56.53999710
C    14.14999962   7.39000034  55.34999847
C    15.52999973   7.26000023  55.25000000
C     5.53999996   6.67999983  55.87999725
H     5.24080992   7.14303255  54.93968582
H    10.11000061   6.54999971  53.69999695
H    11.28000069   8.01999950  58.29999924
H     8.85000038   7.92999983  58.97999573
H     6.54999971   7.50000000  58.34000015
H     7.73999977   6.65000010  54.29000092
H    16.07999992   7.07999992  54.31999969
H     4.84000015   7.05999947  56.63999939
H     5.44000053   5.59000015  55.77000046
S    17.53000069   8.93999958  52.88000107
C    20.20000076   9.19999981  52.08000183
C    18.93000031   8.71999931  51.81999969
C    18.53000069   8.34999943  50.50000000
C    19.44000053   8.52000046  49.47000122
C    20.81000137   8.76000023  49.73999786
C    21.87000084   8.64999962  48.80000305
C    23.16999817   8.89999962  49.16999817
C    23.54999924   9.22000027  50.50000000
C    22.55000114   9.44000053  51.40999603
C    21.19999886   9.15999985  51.06999969
C    17.07999992   8.25000000  50.38999939
C    16.36999893   8.56000042  51.59000015
C    14.98999977   8.69999981  51.65000153
C    25.00000000   9.51000023  50.79999924
H    25.35441971   8.87913418  51.61516571
H    20.56999969   9.61999989  53.01000214
H    19.18000031   8.15999985  48.47999954
H    21.70999908   8.40999985  47.76000214
H    23.94000053   9.11999989  48.43000031
H    22.80999947   9.72999954  52.43000031
H    14.37000084   9.11000061  52.43999863
H    25.65999985   9.46000004  49.93000031
H    24.89999962  10.51000023  51.25000000
S    13.90999985   7.79999971  47.91999817
C    11.18000031   7.64999962  48.60000229
C    12.48999977   7.88000011  48.97999573
C    12.84999943   8.26000023  50.31000137
C    11.79999924   8.36000061  51.19999695
C    10.44000053   8.27000046  50.81999969
C     9.34000015   8.36999989  51.72999954
C     8.03999996   8.14999962  51.35000229
C     7.77999973   7.60999966  50.06000137
C     8.78000069   7.44000006  49.12000275
C    10.10000038   7.81000042  49.50000000
C    14.28999996   8.40999985  50.47999954
C    14.98999977   8.13000011  49.27999878
C    16.38000107   8.05000019  49.20000076
C     6.34999990   7.23999977  49.75000000
H     6.01752043   7.67859030  48.80915070
H    10.90999985   7.35000038  47.58999634
H    12.02000046   8.47000027  52.25999832
H     9.53999996   8.56000042  52.77999878
H     7.17999983   8.28999996  52.00000000
H     8.61999989   6.84999990  48.22000122
H    16.95999908   7.92000008  48.29999924
H     5.69999981   7.50999975  50.59000015
H     6.38999987   6.15000010  49.65000153
