96

S    16.45000076   8.56999969  58.62999725
C    19.15999985   9.11000061  57.90999985
C    17.90999985   8.63000011  57.61000061
C    17.61999893   8.02999973  56.35000229
C    18.64999962   7.88999987  55.44000244
C    19.96000099   8.30999947  55.75000000
C    21.01000023   8.27000046  54.78000259
C    22.27999878   8.73000050  55.02999878
C    22.56999969   9.34000015  56.27999878
C    21.53000069   9.55000019  57.15999985
C    20.22000122   9.02999973  56.97000122
C    16.18999863   7.90999985  56.06999969
C    15.43000031   8.11999989  57.25000000
C    14.04000092   8.03999996  57.25999832
C    23.95000076   9.77999973  56.69000244
H    24.34784317   9.05535793  57.40043640
H    19.32999992   9.47000027  58.92000198
H    18.42000008   7.36999989  54.51000214
H    20.86000061   7.79999971  53.81999969
H    23.02999878   8.55000019  54.27000046
H    21.68000031  10.06000042  58.09999847
H    13.50999928   8.42000008  58.11999893
H    24.50000000   9.73999977  55.73999786
H    23.90000153  10.78999996  57.12999725
S    13.02000046   7.23999977  53.53000259
C    10.29000092   6.98000002  54.22999954
C    11.59000015   7.26999998  54.58000183
C    11.90000057   7.67000008  55.91999817
C    10.88999939   7.88000011  56.84000015
C     9.55000019   7.59000015  56.46999741
C     8.51000023   7.71000004  57.43000031
C     7.21000004   7.40999985  57.09000015
C     6.94000006   6.98000002  55.76000214
C     7.88999987   6.88000011  54.75999832
C     9.23999977   7.03999996  55.18000031
C    13.34000015   7.76000023  56.07999802
C    14.09999943   7.46999979  54.92000198
C    15.48999977   7.55000019  54.91000366
C     5.51000023   6.65999985  55.41999817
H     5.08364916   7.22136164  54.58861542
H    10.01999950   6.58999968  53.25000000
H    11.18999958   8.14999962  57.84999847
H     8.78999996   8.06999969  58.41999817
H     6.44999981   7.63999987  57.83000183
H     7.55999994   6.76000023  53.73000336
H    16.04999924   7.17000008  54.06000137
H     4.96000004   6.91999960  56.32999802
H     5.44000053   5.55999994  55.41999817
S    13.26000023   4.98000002  50.90999985
C    10.57000065   4.46000004  51.63999939
C    11.92000008   4.36999989  51.90000153
C    12.43000031   3.78999996  53.11000061
C    11.49000072   3.24000001  53.96999741
C    10.08999920   3.21000004  53.76999664
C     9.13999939   2.80999994  54.73999786
C     7.81000042   2.87999988  54.40000153
C     7.40000010   3.42000008  53.15000153
C     8.28999996   3.84000015  52.19999695
C     9.65999985   3.89999986  52.57999802
C    13.86999989   3.86999989  53.22000122
C    14.45000076   4.65000010  52.18999863
C    15.76000023   5.10999966  52.22000122
C     5.92000008   3.40000010  52.87000275
H     5.62142134   3.65592432  51.85341263
H    10.11000061   4.96000004  50.79000092
H    11.90000057   2.89000010  54.91000366
H     9.26999950   2.39999986  55.73999786
H     7.14999962   2.29999995  55.02999878
H     7.97999954   4.13000011  51.19999695
H    15.93000031   5.96000004  51.56999969
H     5.46999979   2.45000005  53.20000076
H     5.47999954   4.18000031  53.50999832
S    17.11000061   3.49000001  55.61000061
C    19.78000069   4.09999990  55.05000305
C    18.45000076   4.26999998  54.75000000
C    17.94999886   4.86999989  53.55999756
C    18.86999893   5.59000015  52.81000137
C    20.25000000   5.32000017  52.97000122
C    21.21000099   5.78000021  52.02000046
C    22.56000137   5.59999990  52.18000031
C    23.02000046   5.00999975  53.37999725
C    22.13999939   4.55999994  54.34000015
C    20.72999954   4.65000010  54.15000153
C    16.54999924   4.59000015  53.26000214
C    15.95000076   3.86000013  54.31000137
C    14.60999966   3.48000002  54.34999847
C    24.51999855   4.94999981  53.56999969
H    24.93486214   5.18604279  54.54993439
H    20.00000000   3.30000019  55.75000000
H    18.53999901   6.17000008  51.95000076
H    20.86000061   6.30000019  51.12999725
H    23.12999916   5.97000027  51.32999802
H    22.43999863   4.13000011  55.28999710
H    14.15999985   3.00000000  55.20999908
H    25.06000137   5.47999954  52.77999878
H    24.61999893   3.86999989  53.40999985
