96

S    16.80999947   8.80000019  58.66000366
C    19.55999947   8.56000042  58.00000000
C    18.22999954   8.43000031  57.67000198
C    17.86000061   7.99000025  56.35000229
C    18.84000015   7.76999998  55.40000153
C    20.20999908   7.92999983  55.68999863
C    21.31999969   7.86000013  54.79999924
C    22.57999802   8.30999947  55.12000275
C    22.89999962   8.78999996  56.42000198
C    21.88999939   8.71999931  57.36000061
C    20.55999947   8.36000061  57.02000046
C    16.40999985   7.90999985  56.18999863
C    15.71000004   8.34000015  57.34000397
C    14.32000065   8.40999985  57.36000061
C    24.28999901   9.23999977  56.79000092
H    24.80232811   8.52843189  57.43752670
H    19.82999992   9.02000046  58.94000244
H    18.46999931   7.63999987  54.38999939
H    21.11000061   7.71000004  53.74000168
H    23.38999939   8.36000061  54.40000153
H    22.07999992   9.02000046  58.39000320
H    13.80000019   8.76000023  58.25000000
H    24.79000092   9.47000027  55.84999847
H    24.25000000  10.19000053  57.34000397
S    13.30000019   7.07999992  53.75999832
C    10.54999924   7.09000015  54.38999939
C    11.84000015   7.44000006  54.71000290
C    12.17000008   7.96999979  56.00000000
C    11.17000008   8.14999962  56.93999863
C     9.82999992   7.82000017  56.59999847
C     8.82999992   7.88999987  57.61000061
C     7.53000021   7.53000021  57.34000397
C     7.18999958   6.98999977  56.06999969
C     8.14000034   6.88000011  55.07999802
C     9.48999977   7.30000019  55.30000305
C    13.60999966   8.09000015  56.19999695
C    14.34999943   7.59000015  55.08999634
C    15.72999954   7.55000019  55.01999664
C     5.77000046   6.53999996  55.79999924
H     5.32704973   7.13298130  54.99983215
H    10.25000000   6.63000011  53.44999695
H    11.46000004   8.45000076  57.94000244
H     9.07999992   8.18000031  58.62999725
H     6.80999994   7.49000025  58.13999939
H     7.96000004   6.51999998  54.08000183
H    16.21999931   7.11000013  54.15999985
H     5.21000004   6.71000004  56.72999954
H     5.77000046   5.49000025  55.47000122
S    17.43000031   9.22000027  52.49000168
C    20.15000153   9.19000053  51.84000015
C    18.86000061   8.89999962  51.47999573
C    18.45000076   8.46000004  50.18000031
C    19.43000031   8.28999996  49.22000122
C    20.78000069   8.52000046  49.56999969
C    21.77000046   8.34999943  48.55999756
C    23.06999969   8.65999985  48.88999939
C    23.46999931   9.19999981  50.13999939
C    22.47999954   9.52000046  51.04999924
C    21.17000198   8.97999954  50.87999725
C    17.01000023   8.32999992  50.00999832
C    16.32999992   8.71000004  51.19999695
C    14.93999958   8.76999950  51.31000137
C    24.89999962   9.63999939  50.35999680
H    25.29099464   9.08549786  51.21308136
H    20.40999985   9.65999985  52.77999878
H    19.14999962   7.85000038  48.27000046
H    21.53000069   7.99000025  47.56999969
H    23.81999969   8.47999954  48.13000107
H    22.69000053  10.11000061  51.93000031
H    14.50000000   9.13999939  52.22999954
H    25.51000214   9.61000061  49.43999863
H    24.86999893  10.70000076  50.63999939
S    13.71999931   7.57000017  47.77000046
C    11.02000046   7.82999992  48.33000183
C    12.30999947   7.90000010  48.80000305
C    12.69999981   8.26000023  50.13000107
C    11.65999985   8.53999996  50.98999786
C    10.29000092   8.30999947  50.70999908
C     9.27999973   8.30000019  51.70999908
C     7.97999954   8.00000000  51.37000275
C     7.71000004   7.63999987  50.02999878
C     8.69999981   7.53000021  49.08000183
C    10.03000069   7.96999979  49.34000015
C    14.14999962   8.30999947  50.25000000
C    14.85000038   7.90999985  49.09000015
C    16.22999954   7.95000029  48.90999603
C     6.26999950   7.23999977  49.75999832
H     5.66506433   7.90898752  49.14794540
H    10.88999939   7.37999964  47.34000397
H    11.92000008   8.80999947  52.01000214
H     9.44999981   8.64999962  52.71999741
H     7.28999996   7.82999992  52.18999863
H     8.51000023   7.18999958  48.06999969
H    16.69999886   7.62000036  47.98999786
H     5.73999977   7.05999947  50.70000076
H     6.35999966   6.25000000  49.29000092
