96

S    16.97000122   9.07999992  58.68000031
C    19.70000076   9.09000015  58.01000214
C    18.43000031   8.60000038  57.78999710
C    18.06999969   7.90999985  56.59000015
C    19.03000069   7.59999990  55.63999939
C    20.36999893   7.99000025  55.89000320
C    21.42000008   7.78999996  54.94999695
C    22.69000053   8.26000023  55.18000031
C    23.03999901   8.86999989  56.40999603
C    22.04999924   9.10000038  57.34000397
C    20.71000099   8.71000004  57.09000015
C    16.62999916   7.82999992  56.36000061
C    15.90000057   8.45000076  57.41000366
C    14.51000023   8.43999958  57.37999725
C    24.47999954   9.26000023  56.68000031
H    24.95071793   8.71796036  57.50019455
H    19.88999939   9.68999958  58.88999939
H    18.92000008   7.11000013  54.68000031
H    21.28000069   7.36000013  53.95999908
H    23.42000008   8.19000053  54.38000107
H    22.26000023   9.48000050  58.33000183
H    14.07999992   8.94999981  58.25000000
H    25.07999802   9.06999969  55.77999878
H    24.41999817  10.36000061  56.69000244
S    13.47000027   7.11000013  53.79000092
C    10.69000053   7.11000013  54.43999863
C    12.01000023   7.35000038  54.77000427
C    12.39999962   7.92000008  56.02000427
C    11.43000031   8.14000034  56.97999954
C    10.13000011   7.60999966  56.77999878
C     9.11000061   7.90000010  57.72999573
C     7.77999973   7.64999962  57.50000000
C     7.36000013   7.11000013  56.25999832
C     8.32999992   6.94000006  55.28999710
C     9.72999954   7.13999987  55.47999954
C    13.83999920   8.01000023  56.24000168
C    14.56999969   7.55999994  55.11000061
C    15.95999908   7.49000025  55.19000244
C     5.88999987   6.89000034  56.00000000
H     5.52613735   7.36088085  55.08677673
H    10.42000008   6.71999979  53.47000122
H    11.69000053   8.60000038  57.93000031
H     9.52999973   8.43000031  58.59000397
H     6.98999977   8.14999962  58.04999924
H     8.03999996   6.65999985  54.27999878
H    16.56999969   7.09000015  54.38000107
H     5.25000000   7.36000013  56.76000214
H     5.59000015   5.84000015  56.03000259
S    17.21999931   9.17000008  52.43999863
C    19.89999962   9.09000015  51.72000122
C    18.60000038   8.73000050  51.43000031
C    18.26000023   8.22000027  50.13999939
C    19.29999924   8.07999992  49.22999954
C    20.65000153   8.38999939  49.48999786
C    21.77999878   8.15999985  48.63999939
C    23.06999969   8.45000076  49.02999878
C    23.31000137   9.19999981  50.20999908
C    22.26000023   9.39000034  51.07999802
C    20.95000076   8.92000008  50.79000092
C    16.82999992   7.99000025  50.01999664
C    16.18999863   8.40999985  51.20999908
C    14.80999947   8.56000042  51.26999664
C    24.67000008   9.82999992  50.43000031
H    25.23131371   9.24026489  51.15473557
H    20.07999802   9.63999939  52.63999939
H    19.11999893   7.64999962  48.23999786
H    21.55999947   7.88999987  47.61000061
H    23.92000008   8.19000053  48.41999817
H    22.40999985  10.05000019  51.93000031
H    14.29999924   9.03999996  52.09999847
H    25.25000000   9.94999981  49.50000000
H    24.50000000  10.82999992  50.83000183
S    13.57999992   7.49000025  47.65999603
C    10.92000008   7.44000006  48.43000031
C    12.22000027   7.75000000  48.75999832
C    12.56999969   8.15999985  50.08999634
C    11.56999969   8.40999985  51.02000427
C    10.21999931   8.17000008  50.66999817
C     9.13000011   8.36000061  51.56999969
C     7.82000017   8.23999977  51.18000031
C     7.50000000   7.77999973  49.87999725
C     8.51000023   7.40999985  49.02999878
C     9.88000011   7.63000011  49.38000107
C    14.01999950   8.22000027  50.15999603
C    14.70999908   7.83999968  48.97999573
C    16.09000015   7.73999977  48.86000061
C     6.03999996   7.64999962  49.51000214
H     5.67791796   8.43806076  48.84973145
H    10.77000046   7.03000021  47.43999863
H    11.82000065   8.67999935  52.04000092
H     9.35000038   8.73000050  52.56000137
H     7.05999947   8.36999989  51.95000076
H     8.28999996   7.11000013  48.01000214
H    16.60000038   7.63000011  47.90999985
H     5.49000025   7.73000002  50.45999908
H     5.73999977   6.70000029  49.03999710
