96

S    16.84999847   8.47000027  58.68999863
C    19.52999878   8.73000050  58.04000092
C    18.25000000   8.51000023  57.60000229
C    17.92000008   7.96999979  56.31000137
C    18.95000076   7.90999985  55.40000153
C    20.29999924   8.05999947  55.80999756
C    21.42999840   7.92999983  54.94999695
C    22.70999908   8.19999981  55.37000275
C    22.98000145   8.56000042  56.72000122
C    21.93000031   8.67999935  57.60000229
C    20.59999847   8.40999985  57.16999817
C    16.47999954   7.78999996  56.18999863
C    15.73999977   7.99000025  57.38999939
C    14.34999943   8.01999950  57.39999771
C    24.36000061   9.00000000  57.16999817
H    24.72887611   8.32609081  57.94322205
H    19.79999924   8.88000011  59.08000183
H    18.86999893   7.55000019  54.38000107
H    21.25000000   7.68000031  53.90999603
H    23.48999977   8.34000015  54.61999893
H    22.10000038   9.13000011  58.56999969
H    13.86999989   8.23999977  58.34999847
H    25.10999870   8.92000008  56.38000107
H    24.38999939  10.03999901  57.52999878
S    13.23999977   6.94000006  53.79000092
C    10.54999924   6.51999998  54.58000183
C    11.84000015   6.86999989  54.87999725
C    12.13000107   7.40000010  56.18000031
C    11.13000011   7.62000036  57.11000061
C     9.80000019   7.23000002  56.83000183
C     8.73000050   7.37999964  57.76000214
C     7.44000006   7.26999998  57.29999924
C     7.09999990   6.63000011  56.07999802
C     8.14999962   6.39999962  55.20999908
C     9.50000000   6.71999979  55.52000046
C    13.55999947   7.65999985  56.30000305
C    14.29999924   7.46999979  55.11000061
C    15.67999935   7.57999992  55.06000137
C     5.69000006   6.21999979  55.72000122
H     5.19718838   6.85565567  54.98435211
H    10.34999943   6.19999981  53.55999756
H    11.31000042   8.10999966  58.06000137
H     8.98999977   7.65999985  58.76999664
H     6.71999979   7.68000031  58.00000000
H     7.90999985   5.86000013  54.29000092
H    16.18999863   7.35000038  54.13000107
H     5.17000008   6.25000000  56.68000031
H     5.73000002   5.18000031  55.37000275
S    17.31999969   9.15000057  52.50999832
C    20.00000000   9.02000046  51.84999847
C    18.71000099   8.67999935  51.51000214
C    18.30999947   8.18000031  50.22999573
C    19.29000092   8.10000038  49.26000214
C    20.65000153   8.30999947  49.56999969
C    21.68000031   8.25000000  48.59000397
C    22.98999977   8.51000023  48.90999603
C    23.31000137   9.09000015  50.15999603
C    22.32999992   9.30000019  51.10000229
C    20.98999977   8.89000034  50.84999847
C    16.86000061   8.14999962  50.07999802
C    16.18999863   8.61999989  51.24000168
C    14.81999969   8.82999992  51.33999634
C    24.72999954   9.52999973  50.45000076
H    25.07842445   9.16735554  51.41705322
H    20.19000053   9.44999981  52.83000183
H    19.01000023   7.92999983  48.22000122
H    21.35999870   8.23999977  47.55000305
H    23.69999886   8.64000034  48.09000015
H    22.56999969   9.61999989  52.11000061
H    14.37000084   9.10000038  52.29000092
H    25.43999863   9.07999992  49.75000000
H    24.82999992  10.59999943  50.25000000
S    13.55000019   7.55000019  47.84000015
C    10.88999939   7.49000025  48.69999695
C    12.20000076   7.85000038  48.95000076
C    12.58999920   8.43000031  50.19000244
C    11.61999893   8.55000019  51.17000198
C    10.26999950   8.19000053  50.98999786
C     9.26999950   8.25000000  52.01000214
C     7.96999979   7.96999979  51.66999817
C     7.59000015   7.65999985  50.34000015
C     8.53999996   7.42000008  49.36999893
C     9.89999962   7.68000031  49.69999695
C    14.04999924   8.52000046  50.21999741
C    14.73000050   8.05999947  49.06000137
C    16.10000038   7.88999987  48.94000244
C     6.21000004   7.07000017  50.13000107
H     5.71082735   7.72605610  49.41689682
H    10.65999985   6.93000031  47.80000305
H    12.02000046   8.80999947  52.15000153
H     9.63000011   8.46000004  53.01000214
H     7.28999996   7.86000013  52.50999832
H     8.30000019   6.97000027  48.40999985
H    16.60000038   7.71000004  47.98999786
H     5.65000010   6.94999981  51.06999969
H     6.39999962   6.05999994  49.73999786
