96

S    16.81999969   8.86999989  58.79000092
C    19.47999954   9.25000000  58.01000214
C    18.22999954   8.76999950  57.71999741
C    17.87999916   8.39999962  56.38000107
C    18.85000038   8.36999989  55.40000153
C    20.17000008   8.80999947  55.65000153
C    21.31000137   8.53999996  54.82999802
C    22.57999802   8.85999966  55.25000000
C    22.82999992   9.55999947  56.46999741
C    21.78999901   9.59000015  57.36999893
C    20.46999931   9.23999977  56.98999786
C    16.43000031   8.43000031  56.18999863
C    15.73999977   8.78999996  57.37999725
C    14.34999943   8.78999996  57.44999695
C    24.23000145   9.96999931  56.84000015
H    24.71459961   9.37850189  57.61678696
H    19.71999931   9.57999992  59.02000046
H    18.55999947   7.83999968  54.48999786
H    21.09000015   8.01999950  53.89999771
H    23.35000038   8.75000000  54.50000000
H    21.87999916   9.67000008  58.46000290
H    13.93000031   9.09000015  58.40000153
H    24.86000061   9.84000015  55.94999695
H    24.23999977  11.05000019  57.02000046
S    13.25000000   7.44000006  53.88000107
C    10.55999947   7.28999996  54.54000092
C    11.80999947   7.77999973  54.85000229
C    12.15999985   8.27999973  56.14999771
C    11.17000008   8.36000061  57.11000061
C     9.85000038   7.95000029  56.81999969
C     8.80999947   7.86000013  57.78999710
C     7.55000019   7.36999989  57.50999832
C     7.20000029   6.91999960  56.20999908
C     8.22000027   6.96000004  55.27999878
C     9.53999996   7.44000006  55.52000046
C    13.60000038   8.46000004  56.31999969
C    14.29999924   8.10000038  55.13999939
C    15.67999935   8.19999981  55.02999878
C     5.78000021   6.63000011  55.79000092
H     5.46824265   7.24642849  54.94683838
H    10.44000053   6.60000038  53.70999908
H    11.44999981   8.55000019  58.15000153
H     9.22999954   8.32999992  58.68000031
H     6.86999989   7.28999996  58.34999847
H     8.13000011   6.74000025  54.22000122
H    16.17000008   8.01000023  54.08000183
H     5.05000019   6.80999994  56.59000015
H     5.72000027   5.55000019  55.61999893
S    13.94000053   5.51999998  50.75000000
C    11.33999920   4.75000000  51.43000031
C    12.69000053   4.72000027  51.70999908
C    13.17999935   4.18000031  52.94000244
C    12.28000069   3.63999987  53.82999802
C    10.88999939   3.68999982  53.56999969
C     9.98000050   3.12999988  54.51000214
C     8.63000011   3.28999996  54.29000092
C     8.14000034   4.09000015  53.22000122
C     8.98999977   4.55000019  52.22999954
C    10.39000034   4.36999989  52.41000366
C    14.59000015   4.51000023  53.11000061
C    15.15999985   5.12000036  51.97000122
C    16.53000069   5.36000013  51.93999863
C     6.65999985   4.30000019  53.02999878
H     6.24785137   3.96601772  52.07779694
H    10.92000008   5.19000006  50.52999878
H    12.69999981   3.19999981  54.72999954
H    10.36999893   2.61999989  55.38999939
H     7.88999987   2.79000020  54.89999771
H     8.61999989   5.19000006  51.43000031
H    17.01000023   5.63000011  51.00000000
H     6.15000010   3.89999986  53.90999603
H     6.65000010   5.40000010  53.02999878
S    17.92000008   4.18000031  55.50000000
C    20.55999947   4.57999992  54.77000427
C    19.22999954   4.79999971  54.48999786
C    18.63999939   5.38999987  53.31999969
C    19.61000061   5.86000013  52.45999908
C    20.98999977   5.58000040  52.56999969
C    21.94999886   6.06999969  51.63999939
C    23.28000069   6.14000034  51.98999786
C    23.74000168   5.64000034  53.23999786
C    22.86999893   5.00999975  54.09999847
C    21.48999977   4.94999981  53.76999664
C    17.20000076   5.22000027  53.15999985
C    16.65999985   4.67000008  54.34999847
C    15.31000042   4.34999990  54.29999924
C    25.13999939   6.03999996  53.64999771
H    25.38924980   5.53437757  54.58290863
H    20.84000015   4.15000010  55.72999954
H    19.23999977   6.25000000  51.51000214
H    21.53000069   6.67999983  50.84999847
H    23.81000137   6.89000034  51.40999603
H    23.19999886   4.75000000  55.11000061
H    14.80000019   3.93000007  55.15999603
H    25.30999947   7.11000013  53.82999802
H    25.86000061   5.77000046  52.85999680
