96

S    17.05999947   8.67000008  58.82999802
C    19.71999931   8.78000069  58.06999969
C    18.42000008   8.50000000  57.70999908
C    18.12000084   7.92999983  56.43000031
C    19.17000008   7.71000004  55.56000137
C    20.51000214   8.05000019  55.87999725
C    21.54000092   8.01000023  54.89999771
C    22.85000038   8.34999943  55.19000244
C    23.15999985   8.73000050  56.52000046
C    22.14999962   9.00000000  57.42000198
C    20.81999969   8.53999996  57.19999695
C    16.67000008   7.90000010  56.31999969
C    15.97000027   8.27000046  57.49000168
C    14.57999992   8.32999992  57.56000137
C    24.47999954   9.35999966  56.88999939
H    25.01955032   8.83464718  57.67802811
H    19.89999962   9.22999954  59.03999710
H    18.95000076   7.40000010  54.54000092
H    21.21999931   7.73999977  53.89999771
H    23.61999893   8.30999947  54.43000031
H    22.34999847   9.46000004  58.37999725
H    14.01999950   8.60000038  58.44999695
H    25.15000153   9.53999996  56.04000092
H    24.13000107  10.34000015  57.23999786
S    13.45999908   6.84000015  54.02000046
C    10.81999969   6.76999998  54.56999969
C    12.05000019   7.13999987  55.06000137
C    12.38000011   7.77999973  56.29000092
C    11.25000000   8.05999947  57.04000092
C     9.92000008   7.72000027  56.66999817
C     8.80000019   8.01000023  57.50000000
C     7.51999950   7.62000036  57.18000031
C     7.34000015   6.84000015  56.00999832
C     8.38000011   6.65000010  55.12000275
C     9.71000004   7.04999971  55.40999985
C    13.81999969   7.96999979  56.44000244
C    14.50000000   7.55000019  55.27000046
C    15.88999939   7.48000050  55.22999573
C     5.93999958   6.34000015  55.76000214
H     5.48895550   7.04878473  55.06553650
H    10.65000057   6.25999975  53.62999725
H    11.43000031   8.52999973  58.00000000
H     8.98999977   8.43999958  58.47999954
H     6.67000008   7.95000029  57.77999878
H     8.27000046   6.09000015  54.20000076
H    16.31000137   7.18999958  54.27999878
H     5.42999983   6.24000025  56.72999954
H     6.03999996   5.32999992  55.33000183
S    13.73000050   5.26999998  50.76000214
C    11.10000038   4.53000021  51.31000137
C    12.43000031   4.51000023  51.69000244
C    12.84999943   3.84999990  52.88999939
C    11.90000057   3.31999993  53.73000336
C    10.52000046   3.35999990  53.43000031
C     9.50000000   2.92000008  54.31999969
C     8.15999985   3.05000019  54.02000046
C     7.77999973   3.79999995  52.88000107
C     8.75000000   4.32999992  52.04999924
C    10.13000011   4.02999973  52.22000122
C    14.28999996   4.00999975  53.02999878
C    14.89999962   4.72000027  51.97000122
C    16.26000023   5.01999950  51.97000122
C     6.34999990   4.25000000  52.69000244
H     5.91477394   3.77196550  51.81241226
H    10.73999977   5.05999994  50.44000244
H    12.20999908   2.89000010  54.68000031
H     9.84000015   2.72000027  55.34000015
H     7.40999985   2.89999986  54.79000092
H     8.53999996   5.03999996  51.25999832
H    16.57999992   5.69000006  51.18000031
H     5.84999990   4.00000000  53.63999939
H     6.38999987   5.32000017  52.47000122
S    17.56000137   3.49000001  55.40999985
C    20.20999908   4.25000000  54.88999939
C    18.89999962   4.21000004  54.48999786
C    18.45999908   4.84000015  53.27999878
C    19.42000008   5.38999987  52.45999908
C    20.81000137   5.33999968  52.72999573
C    21.81999969   5.86000013  51.88000107
C    23.15000153   5.82000017  52.23999786
C    23.52000046   5.26999998  53.48999786
C    22.55000114   4.85000038  54.36999893
C    21.17000198   4.85000038  54.02999878
C    17.02999878   4.63000011  53.06999969
C    16.39999962   4.00000000  54.16999817
C    15.03999901   3.71000004  54.18000031
C    25.00000000   5.03000021  53.73000336
H    25.31429863   5.24429464  54.75146866
H    20.45999908   3.86000013  55.87999725
H    19.04999924   5.75999975  51.50000000
H    21.50000000   6.17000008  50.87999725
H    23.94000053   6.09000015  51.53999710
H    22.81999969   4.32000017  55.27999878
H    14.50000000   3.19000006  54.97000122
H    25.55999947   5.50000000  52.91999817
H    25.13999939   3.95000005  53.69999695
