96

S    17.20000076   8.27000046  58.93000031
C    19.88000107   8.25000000  58.20000076
C    18.60000038   7.83999968  57.91999817
C    18.20000076   7.46000004  56.59000015
C    19.14999962   7.57999992  55.59999847
C    20.50000000   7.92999983  55.86999893
C    21.53000069   7.79999971  54.89999771
C    22.84000015   8.05999947  55.22999573
C    23.19999886   8.55000019  56.51000214
C    22.22999954   8.65999985  57.48000336
C    20.89999962   8.23000050  57.22000122
C    16.75000000   7.44999981  56.46999741
C    16.06999969   7.99000025  57.58999634
C    14.68000031   8.09000015  57.57999802
C    24.61999893   9.00000000  56.76000214
H    25.11168289   8.33016872  57.46546173
H    20.17999840   8.57999992  59.19000244
H    18.90999985   7.26999998  54.59000015
H    21.30000114   7.49000025  53.88000107
H    23.61000061   8.01000023  54.47000122
H    22.43999863   8.97999954  58.48999786
H    14.14999962   8.34999943  58.48999786
H    25.13999939   9.09000015  55.79000092
H    24.79000092  10.01999950  57.11999893
S    13.61999989   7.11999989  53.85000229
C    10.90000057   7.26999998  54.40999985
C    12.18999958   7.50999975  54.82999802
C    12.51999950   7.81000042  56.18999863
C    11.46000004   8.07999992  57.02999878
C    10.14000034   7.76999998  56.63000107
C     9.04999924   7.85000038  57.54000092
C     7.78999996   7.42000008  57.22000122
C     7.51999950   6.90999985  55.91999817
C     8.51000023   6.83000040  54.97000122
C     9.81999969   7.23999977  55.33000183
C    13.96000004   7.77999973  56.42000198
C    14.65000057   7.27999973  55.28999710
C    16.03999901   7.22000027  55.27999878
C     6.15000010   6.44000006  55.51000214
H     5.57385159   7.21531105  55.00498199
H    10.76000023   6.97000027  53.37999725
H    11.65999985   8.28999996  58.08000183
H     9.23999977   8.47000027  58.41999817
H     6.96000004   7.59000015  57.90999985
H     8.23000050   6.32999992  54.03999710
H    16.59000015   7.04999971  54.36000061
H     5.69999981   5.98999977  56.40999603
H     6.47000027   5.59999990  54.88999939
S    17.39999962   9.09000015  52.61000061
C    20.10999870   8.96000004  51.97000122
C    18.81000137   8.82999992  51.56000137
C    18.43000031   8.45000076  50.24000168
C    19.45000076   8.21000004  49.34000015
C    20.81999969   8.28999996  49.68000031
C    21.87000084   8.14999962  48.72000122
C    23.19000053   8.36000061  49.03999710
C    23.51000023   8.78000069  50.35999680
C    22.50999832   8.90999985  51.30000305
C    21.12999916   8.64000034  51.04000092
C    16.97999954   8.30999947  50.12000275
C    16.28000069   8.71999931  51.27999878
C    14.89999962   8.71999931  51.38000107
C    24.89999962   9.19999981  50.76000214
H    25.29203224   8.67253971  51.62959671
H    20.40999985   9.35000038  52.94000244
H    19.26000023   7.94000053  48.30999756
H    21.57999992   8.14000034  47.68000031
H    23.92999840   8.36999989  48.25000000
H    22.70999908   9.50000000  52.18999863
H    14.52000046   9.11000061  52.32999802
H    25.50000000   9.13000011  49.84000397
H    24.92000198  10.27999973  50.91999817
S    13.73000050   7.69000006  47.71999741
C    11.10000038   7.44999981  48.43000031
C    12.32999992   7.96000004  48.76999664
C    12.72999954   8.36000061  50.07999802
C    11.72999954   8.53999996  51.03000259
C    10.42000008   8.21000004  50.63000107
C     9.36999989   8.57999992  51.52000046
C     8.03999996   8.38000011  51.25000000
C     7.72000027   7.77999973  50.00000000
C     8.65999985   7.50000000  49.03999710
C    10.03999901   7.67000008  49.34999847
C    14.18000031   8.43999958  50.21999741
C    14.85999966   8.05999947  49.02999878
C    16.25000000   8.00000000  48.96999741
C     6.30999994   7.30999994  49.73999786
H     5.92082834   7.82653618  48.86259460
H    10.86999989   6.91999960  47.50999832
H    11.90000057   9.02000046  51.98999786
H     9.73999977   8.94999981  52.47000122
H     7.34000015   8.45000076  52.08000183
H     8.48999977   7.09999990  48.04000092
H    16.72999954   7.82999992  48.01000214
H     5.73000002   7.53000021  50.63999939
H     6.30000019   6.21999979  49.64000320
