96

S    17.04000092   8.30000019  58.81000137
C    19.77000046   8.36999989  58.09999847
C    18.46999931   8.01000023  57.80000305
C    18.09000015   7.55999994  56.50000000
C    19.03000069   7.55999994  55.47999954
C    20.36999893   7.94000053  55.70999908
C    21.45999908   7.72000027  54.80999756
C    22.73999977   8.09000015  55.14999771
C    23.05999947   8.51000023  56.47999573
C    22.06999969   8.56000042  57.43000031
C    20.72000122   8.30000019  57.05999756
C    16.64999962   7.44000006  56.35000229
C    15.93000031   7.88000011  57.49000168
C    14.55000019   8.02999973  57.51999664
C    24.51999855   8.75000000  56.77000046
H    24.82567978   8.25948811  57.69415283
H    20.05000114   8.73000050  59.09000015
H    18.72999954   7.17999983  54.51000214
H    21.18000031   7.26999998  53.86000061
H    23.46999931   8.02999973  54.34999847
H    22.30999947   8.67000008  58.48999786
H    13.94999981   8.38999939  58.34999847
H    25.23999977   8.48999977  55.97999954
H    24.67000008   9.81999969  56.90999985
S    13.40999985   7.17999983  53.86000061
C    10.67000008   7.28999996  54.54000092
C    12.00000000   7.44000006  54.88999939
C    12.36999989   7.75000000  56.24000168
C    11.36000061   7.88999987  57.18000031
C     9.98999977   7.76000023  56.86999893
C     8.86999989   7.90000010  57.74000168
C     7.55000019   7.73999977  57.37999725
C     7.23999977   7.23000002  56.09000397
C     8.28999996   7.21000004  55.20000076
C     9.64999962   7.50000000  55.50000000
C    13.81999969   7.82999992  56.35000229
C    14.55000019   7.44999981  55.20000076
C    15.93000031   7.26999998  55.15999603
C     5.88000011   6.67999983  55.72999954
H     5.38317108   7.32587814  55.00605011
H    10.50000000   7.05999947  53.48999786
H    11.68000031   8.03999996  58.20999908
H     9.19000053   8.03999996  58.76999664
H     6.77999973   7.65999985  58.13999939
H     8.03999996   6.77999973  54.22999954
H    16.45000076   7.23000002  54.20999908
H     5.26999998   6.60000038  56.63999939
H     6.12999964   5.72000027  55.27000046
S    17.53999901   8.97999954  52.76000214
C    20.22999954   9.06999969  52.02000046
C    18.93000031   8.73999977  51.70000076
C    18.64999962   8.09000015  50.45000076
C    19.64999962   7.79999971  49.54000092
C    20.96999931   8.19000053  49.86999893
C    22.06999969   7.85000038  49.02999878
C    23.36999893   8.19999981  49.27000046
C    23.68999863   8.85999966  50.48999786
C    22.65999985   9.09000015  51.38000107
C    21.28000069   8.88000011  51.09000397
C    17.20000076   8.00000000  50.30000305
C    16.48999977   8.46000004  51.43000031
C    15.11000061   8.65999985  51.36000061
C    25.13000107   9.19999981  50.79999924
H    25.63614273   8.60831356  51.56277466
H    20.43999863   9.53999996  52.97999954
H    19.56999969   7.57999992  48.47999954
H    21.81999969   7.27999973  48.13000107
H    24.23999977   8.01000023  48.63999939
H    22.98999977   9.48999977  52.34000397
H    14.53999996   9.13999939  52.15000153
H    25.62000084   9.19000053  49.81999969
H    25.09000015  10.24000072  51.16000366
S    14.09999943   7.35000038  47.70000076
C    11.39000034   7.59000015  48.36000061
C    12.69999981   7.86000013  48.67000198
C    13.00000000   8.23000050  50.02999878
C    12.02000046   8.51000023  50.96000290
C    10.67000008   8.47000027  50.52000046
C     9.63000011   8.67000008  51.46999741
C     8.36000061   8.21000004  51.18000031
C     8.06999969   7.48000050  50.00000000
C     9.00000000   7.49000025  48.99000168
C    10.32999992   7.96000004  49.22000122
C    14.44000053   8.22000027  50.21999741
C    15.14999962   7.78999996  49.06000137
C    16.53000069   7.69000006  49.10999680
C     6.67999983   6.91999960  49.75999832
H     6.14122438   7.57929134  49.07944489
H    11.10999966   7.09999990  47.43000031
H    12.30999947   8.92000008  51.91999817
H     9.81999969   9.07999992  52.44999695
H     7.65999985   8.27999973  52.00000000
H     8.90999985   7.02000046  48.01000214
H    17.07999992   7.34000015  48.23999786
H     6.25000000   6.76000023  50.75000000
H     6.63000011   5.92999983  49.29000092
