96

S    16.75000000   8.48999977  58.86000061
C    19.47000122   8.46000004  58.18999863
C    18.18000031   8.09000015  57.88999939
C    17.82999992   7.59999990  56.59000015
C    18.79999924   7.39000034  55.63000107
C    20.13999939   7.72000027  55.91999817
C    21.17000198   7.69999981  54.93999863
C    22.50000000   7.96999979  55.19000244
C    22.80999947   8.31999969  56.52999878
C    21.86000061   8.46000004  57.51999664
C    20.48999977   8.21000004  57.22999954
C    16.39000130   7.55000019  56.39999771
C    15.67000008   7.96999979  57.55000305
C    14.29999924   8.15999985  57.51999664
C    24.20000076   8.73000050  56.93999863
H    24.56939316   8.03383541  57.69299316
H    19.73999977   8.88000011  59.15000153
H    18.59000015   7.13000011  54.59999847
H    20.82999992   7.34000015  53.96999741
H    23.19000053   7.72000027  54.38999939
H    22.01999855   8.80999947  58.54000092
H    13.76999950   8.52000046  58.40000153
H    24.79999924   8.56000042  56.03000259
H    24.30999947   9.78999996  57.22000122
S    13.15000057   6.81999969  53.97999573
C    10.44999981   6.90999985  54.54999924
C    11.72999954   7.22000027  54.95999908
C    12.06999969   7.73999977  56.25999832
C    11.05000019   7.95000029  57.16999817
C     9.71000004   7.71000004  56.79000092
C     8.73000050   7.68000031  57.81999969
C     7.42000008   7.39000034  57.50999832
C     7.09999990   7.16000032  56.14999771
C     8.03999996   7.09000015  55.14999771
C     9.42000008   7.28999996  55.44000244
C    13.50999928   7.72000027  56.45000076
C    14.22999954   7.28999996  55.31000137
C    15.62000084   7.21000004  55.27999878
C     5.75000000   6.57000017  55.83000183
H     5.16377926   7.21978760  55.18021774
H    10.21000004   6.61999989  53.53000259
H    11.30000019   8.09000015  58.22000122
H     9.06000042   7.85000038  58.83999634
H     6.71999979   7.28999996  58.34000015
H     7.82000017   6.65000010  54.16999817
H    16.18000031   6.93000031  54.38000107
H     5.22000027   6.39999962  56.77999878
H     5.84000015   5.56999969  55.38999939
S    13.53999996   5.00000000  50.96000290
C    10.88999939   4.30000019  51.45999908
C    12.22000027   4.13000011  51.76000214
C    12.63000011   3.58999991  53.02000046
C    11.61999893   3.05999994  53.81000137
C    10.24000072   3.28000021  53.57999802
C     9.26999950   2.84000015  54.52000046
C     7.92999983   2.94999981  54.22000122
C     7.55999994   3.61000013  53.02000046
C     8.46000004   4.09999990  52.11000061
C     9.85000038   3.86999989  52.32999802
C    14.06000042   3.74000025  53.22999954
C    14.70000076   4.44999981  52.18999863
C    16.05999947   4.76999998  52.23999786
C     6.10000038   3.84999990  52.69000244
H     5.72274876   3.28768206  51.83584976
H    10.57000065   4.92999983  50.63999939
H    11.92000008   2.47000003  54.66999817
H     9.68999958   2.32999992  55.38999939
H     7.26000023   2.48000002  54.93000031
H     8.18000031   4.67000008  51.23000336
H    16.54000092   5.26000023  51.40999603
H     5.59000015   3.55999994  53.61000061
H     5.98000002   4.94000006  52.56000137
S    17.27000046   3.31999993  55.76000214
C    19.93999863   3.61999989  55.04000092
C    18.61999893   3.86999989  54.75000000
C    18.23999977   4.55999994  53.54999924
C    19.20999908   5.01999950  52.69000244
C    20.59000015   4.80999994  52.90999985
C    21.65999985   5.13999987  52.02999878
C    22.98000145   4.90999985  52.32999802
C    23.29999924   4.21000004  53.52000427
C    22.29000092   3.79999995  54.36000061
C    20.90999985   4.09000015  54.12000275
C    16.79999924   4.41000032  53.36999893
C    16.18000031   3.65999985  54.40000153
C    14.82999992   3.32999992  54.31999969
C    24.69000053   3.74000025  53.86000061
H    25.02306938   4.04472351  54.85212326
H    20.19000053   3.00999999  55.90000153
H    18.86000061   5.25000000  51.68000031
H    21.35999870   5.69999981  51.14999771
H    23.72999954   4.94999981  51.55000305
H    22.50999832   3.26999998  55.27999878
H    14.27999973   3.03999996  55.21999741
H    25.38000107   4.15999985  53.09999847
H    24.79999924   2.64999986  53.83999634
