96

S    16.72000122   8.46000004  58.97999573
C    19.45999908   8.36000061  58.43000031
C    18.18000031   8.05999947  58.04000092
C    17.85000038   7.48000050  56.77999878
C    18.79999924   7.42000008  55.77000046
C    20.10000038   7.82999992  56.13999939
C    21.15999985   7.63999987  55.20999908
C    22.47999954   7.88999987  55.51000214
C    22.80999947   8.45000076  56.77000046
C    21.84999847   8.56000042  57.75000000
C    20.48999977   8.27000046  57.44999695
C    16.43000031   7.21000004  56.60999680
C    15.71000004   7.79999971  57.68000031
C    14.34000015   8.05000019  57.65999603
C    24.20000076   8.93000031  57.14000320
H    24.77126694   8.18735313  57.69698334
H    19.62000084   8.85000038  59.38999939
H    18.64999962   7.05999947  54.75999832
H    20.92000008   7.26999998  54.22000122
H    23.31000137   7.55999994  54.87999725
H    21.98999786   8.85000038  58.79000092
H    13.86000061   8.51000023  58.52000427
H    24.77999878   9.01000023  56.22000122
H    24.20999908   9.85999966  57.70999908
S    13.22999954   7.05999947  54.01000214
C    10.50000000   7.00999975  54.61999893
C    11.78999996   7.34000015  55.00000000
C    12.15999985   7.73999977  56.31999969
C    11.16000080   7.90999985  57.25999832
C     9.81999969   7.63000011  56.90000153
C     8.82000065   7.62000036  57.90999985
C     7.50999975   7.30000019  57.64999771
C     7.17999983   6.86999989  56.33999634
C     8.11999989   6.81999969  55.31999969
C     9.47000027   7.16000032  55.58000183
C    13.60000038   7.75000000  56.51000214
C    14.32000065   7.25000000  55.40000153
C    15.67999935   6.94000006  55.45999908
C     5.75999975   6.48999977  56.03000259
H     5.22656393   7.16568518  55.36142731
H    10.19000053   6.57000017  53.68000031
H    11.35000038   8.27999973  58.27000046
H     9.13999939   7.92999983  58.89999771
H     6.63999987   7.40999985  58.29999924
H     7.86999989   6.38000011  54.36000061
H    16.28999901   6.80999994  54.56999969
H     5.23000002   6.48999977  56.98999786
H     5.60999966   5.46000004  55.66999817
S    17.12000084   8.76000023  52.83000183
C    19.78000069   8.78000069  52.02999878
C    18.46999931   8.47999954  51.72000122
C    18.12999916   8.01000023  50.40999985
C    19.10000038   7.77999973  49.45000076
C    20.45999908   7.99000025  49.79000092
C    21.54000092   7.86999989  48.88000107
C    22.86000061   8.19999981  49.10999680
C    23.13999939   8.88000011  50.33000183
C    22.11999893   9.10000038  51.22000122
C    20.79999924   8.60000038  51.04999924
C    16.68000031   7.96000004  50.28999710
C    16.03999901   8.43000031  51.45999908
C    14.65999985   8.61999989  51.42000198
C    24.51999855   9.35999966  50.72999954
H    24.95352173   8.72748661  51.50465012
H    20.05000114   9.32999992  52.93000031
H    19.00000000   7.46000004  48.41999817
H    21.35999870   7.50000000  47.87000275
H    23.57999992   8.10999966  48.30999756
H    22.32000160   9.73999977  52.08000183
H    14.27000046   9.04999924  52.32999802
H    25.15000153   9.43000031  49.82999802
H    24.40999985  10.39000034  51.07999802
S    13.40999985   7.40999985  47.87000275
C    10.70000076   7.23000002  48.64999771
C    11.98999977   7.64999962  48.89999771
C    12.43000031   8.10999966  50.18000031
C    11.46000004   8.28999996  51.14999771
C    10.10000038   7.96999979  50.96000290
C     9.03999996   8.23999977  51.86999893
C     7.73000002   7.92999983  51.56999969
C     7.39000034   7.27999973  50.35999680
C     8.38000011   7.13000011  49.40999985
C     9.73999977   7.40999985  49.68000031
C    13.88000011   8.26000023  50.31000137
C    14.55999947   7.79999971  49.15999985
C    15.93999958   7.59000015  49.15999985
C     5.92999983   7.07999992  50.02999878
H     5.60392618   7.64708471  49.15810776
H    10.52000046   6.69000053  47.71999741
H    11.72000027   8.64999962  52.14000320
H     9.35000038   8.60999966  52.84000015
H     6.94999981   8.27999973  52.23999786
H     8.22000027   6.94999981  48.34999847
H    16.39999962   7.46999979  48.18999863
H     5.19000006   7.23000002  50.81999969
H     5.84999990   6.02999973  49.68999863
