96

S    17.09000015   8.28999996  58.75000000
C    19.71999931   8.15999985  57.97000122
C    18.42000008   7.79999971  57.69000244
C    18.04999924   7.25000000  56.42000198
C    19.05999947   7.20000029  55.47999954
C    20.36000061   7.73000002  55.66999817
C    21.45000076   7.57000017  54.75999832
C    22.73999977   7.88000011  55.11000061
C    23.02000046   8.47000027  56.37000275
C    22.04000092   8.64000034  57.30999756
C    20.73999786   8.15999985  56.98999786
C    16.60000038   7.22000027  56.35000229
C    15.95999908   7.77999973  57.48000336
C    14.60000038   8.05999947  57.54000092
C    24.44999886   8.80000019  56.73999786
H    24.91281509   8.00965500  57.33097839
H    19.96000099   8.59000015  58.94000244
H    18.85000038   6.58999968  54.61000061
H    21.18999863   7.07000017  53.82999802
H    23.54000092   7.63000011  54.40000153
H    22.22999954   8.82999992  58.36999893
H    14.13000011   8.45000076  58.43999863
H    25.07999802   8.89999962  55.84000015
H    24.48999786   9.76000023  57.27000427
S    13.36999989   6.85999966  53.96999741
C    10.67999935   6.76000023  54.66999817
C    11.96000004   7.13999987  55.00000000
C    12.38000011   7.50000000  56.31999969
C    11.40999985   7.63999987  57.29999924
C    10.06999969   7.39000034  56.93999863
C     9.07999992   7.69000006  57.93000031
C     7.76000023   7.42000008  57.63000107
C     7.31999969   6.85999966  56.39999771
C     8.28999996   6.61999989  55.45999908
C     9.64999962   6.98999977  55.63000107
C    13.81999969   7.68000031  56.45000076
C    14.48999977   7.13999987  55.31999969
C    15.85999966   6.94000006  55.19000244
C     5.88000011   6.39999962  56.25000000
H     5.41820908   6.93283558  55.41877365
H    10.44999981   6.30999994  53.70999908
H    11.64000034   7.99000025  58.30999756
H     9.28999996   7.86000013  58.97999573
H     7.05999947   7.57999992  58.43999863
H     8.09000015   6.11000013  54.52000046
H    16.32999992   6.65000010  54.26000214
H     5.32999992   6.61000013  57.16999817
H     5.84999990   5.31000042  56.14999771
S    17.42000008   8.57999992  52.85999680
C    20.06999969   8.85000038  52.04000092
C    18.78999901   8.46000004  51.72999954
C    18.43000031   8.01999950  50.41999817
C    19.45000076   7.81000042  49.51000214
C    20.81000137   8.06999969  49.80999756
C    21.83000183   7.88999987  48.82999802
C    23.12999916   8.25000000  49.09999847
C    23.45000076   8.80000019  50.35999680
C    22.49000168   8.89999962  51.33999634
C    21.11000061   8.64999962  51.09000397
C    16.98999977   7.83999968  50.28999710
C    16.36000061   8.27000046  51.47999573
C    15.00000000   8.56999969  51.49000168
C    24.87999916   9.19000053  50.68999863
H    25.29923439   8.51495934  51.43609619
H    20.36000061   9.15999985  53.04000092
H    19.23999977   7.36999989  48.54000092
H    21.50000000   7.57000017  47.84999847
H    23.81000137   8.05000019  48.27000046
H    22.79000092   9.39000034  52.25999832
H    14.52000046   9.07999992  52.31999969
H    25.61000061   9.21000004  49.87999725
H    24.71999931  10.21999931  51.03000259
S    13.78000069   7.35000038  47.88999939
C    11.13000011   7.36999989  48.60000229
C    12.41000080   7.75000000  48.95000076
C    12.79000092   8.23000050  50.25000000
C    11.75000000   8.27999973  51.16000366
C    10.44000053   7.88000011  50.83000183
C     9.39999962   7.90999985  51.81000137
C     8.10000038   7.53000021  51.56999969
C     7.73999977   7.26999998  50.21999741
C     8.67999935   7.21000004  49.22000122
C    10.05000019   7.46999979  49.51000214
C    14.23999977   8.19000053  50.38000107
C    14.88000011   7.60999966  49.26000214
C    16.26000023   7.44999981  49.15999985
C     6.28999996   6.93000031  50.01999664
H     5.69769192   7.61507893  49.41341782
H    10.88999939   6.98999977  47.61000061
H    12.02999973   8.38999939  52.21000290
H     9.72999954   8.19000053  52.80000305
H     7.37999964   7.51999950  52.37999725
H     8.52000046   6.96000004  48.16999817
H    16.76000023   7.36000013  48.18999863
H     5.75999975   6.86999989  50.98999786
H     6.26999950   5.95000029  49.52000046
