96

S    17.13999939   8.52999973  59.05000305
C    19.82999992   8.69000053  58.34999847
C    18.53999901   8.42000008  57.95999908
C    18.15999985   7.96000004  56.65999985
C    19.18000031   7.88000011  55.72999954
C    20.53999901   8.05000019  56.07999802
C    21.61000061   7.86000013  55.14999771
C    22.88999939   8.18000031  55.54000092
C    23.21000099   8.73999977  56.79999924
C    22.21999931   8.82000065  57.76000214
C    20.86999893   8.48999977  57.41000366
C    16.72000122   7.77999973  56.56000137
C    16.02000046   8.02999973  57.77000046
C    14.63000107   8.13000011  57.78999710
C    24.61999893   9.11000061  57.18000031
H    24.99602699   8.49274921  57.99590683
H    19.98999977   9.03999996  59.36000061
H    19.03000069   7.60999966  54.68999863
H    21.40999985   7.59000015  54.12000275
H    23.75000000   8.09000015  54.87999725
H    22.46999931   9.32999992  58.68000031
H    14.04999924   8.47000027  58.63999939
H    25.27000046   9.02000046  56.30000305
H    24.51999855  10.14999962  57.50999832
S    13.48000050   7.11000013  54.12000275
C    10.78999996   7.00000000  54.81999969
C    12.07999992   7.30000019  55.19000244
C    12.43000031   7.77999973  56.49000168
C    11.39000034   7.95000029  57.37999725
C    10.03000069   7.69999981  57.05999756
C     9.00000000   7.68000031  58.02999878
C     7.69000006   7.39000034  57.70999908
C     7.40999985   6.88000011  56.40999603
C     8.39999962   6.75000000  55.45999908
C     9.73999977   7.14999962  55.76000214
C    13.88000011   7.76999998  56.66999817
C    14.56999969   7.40000010  55.48999786
C    15.95999908   7.40999985  55.44000244
C     6.01000023   6.40999985  56.09000397
H     5.55373096   7.06588697  55.34856415
H    10.52999973   6.53999996  53.87000275
H    11.65999985   8.02999973  58.43000031
H     9.35000038   7.79999971  59.05000305
H     6.93000031   7.42000008  58.47999954
H     8.31999969   6.02999973  54.65999985
H    16.46999931   7.02000046  54.55999756
H     5.36000013   6.43000031  56.97000122
H     6.00000000   5.36999989  55.75000000
S    13.38999939   5.32999992  51.16000366
C    10.76000023   4.55000019  51.72000122
C    12.10000038   4.46000004  52.00000000
C    12.56000042   3.81999993  53.20000076
C    11.64999962   3.30999994  54.10999680
C    10.26999950   3.51000023  53.85000229
C     9.26999950   2.94000006  54.68999863
C     7.94000053   2.98000002  54.34999847
C     7.50000000   3.61999989  53.16999817
C     8.40999985   4.05000019  52.22999954
C     9.78999996   3.98000002  52.57999802
C    13.99000072   4.00999975  53.40999985
C    14.55999947   4.82999992  52.39999771
C    15.90999985   5.15999985  52.43999863
C     6.01999998   3.74000025  52.90000153
H     5.73534346   3.32724786  51.93216705
H    10.36000061   5.15999985  50.90999985
H    11.98999977   2.82000017  55.00999832
H     9.48999977   2.25999999  55.51000214
H     7.28999996   2.33999991  54.94999695
H     8.23000050   4.61999989  51.31999969
H    16.39999962   5.86000013  51.77000046
H     5.49000025   3.08999991  53.61999893
H     5.84999990   4.81999969  52.81000137
S    17.28999901   3.51000023  55.72999954
C    19.95000076   4.23999977  55.19000244
C    18.63000107   4.26000023  54.84000397
C    18.17000008   4.79999971  53.59000397
C    19.09000015   5.45000029  52.78999710
C    20.48000145   5.32999992  53.02000046
C    21.47999954   5.84999990  52.14000320
C    22.82999992   5.73000002  52.36000061
C    23.22999954   5.13999987  53.57999802
C    22.29999924   4.73000002  54.51000214
C    20.89999962   4.75000000  54.26000214
C    16.72999954   4.65000010  53.44999695
C    16.10000038   3.88999987  54.47000122
C    14.75000000   3.55999994  54.48999786
C    24.67000008   4.71000004  53.79000092
H    25.14552498   5.02228498  54.71976089
H    20.27000046   3.81000018  56.13999939
H    18.71999931   6.01999998  51.93999863
H    21.14000130   6.25000000  51.18999863
H    23.59999847   5.88999987  51.60999680
H    22.67000008   4.42999983  55.47999954
H    14.40999985   2.82999992  55.21999741
H    25.15999985   5.14999962  52.91999817
H    24.79000092   3.63000011  53.68000031
