96

S    16.79999924   8.50000000  58.89999771
C    19.51000023   8.43999958  58.29000092
C    18.22000122   8.10999966  57.91999817
C    17.81999969   7.64999962  56.63000107
C    18.82999992   7.49000025  55.68999863
C    20.15000153   7.90999985  55.96000290
C    21.17000198   7.94000053  54.97000122
C    22.49000168   8.18000031  55.26000214
C    22.85000038   8.51000023  56.59999847
C    21.88999939   8.52999973  57.57999802
C    20.52000046   8.26000023  57.30999756
C    16.36999893   7.68000031  56.50000000
C    15.62999916   8.10999966  57.63000107
C    14.25000000   8.27000046  57.63000107
C    24.26000214   8.92000008  56.95999908
H    24.71679688   8.24194145  57.68088531
H    19.76000023   8.88000011  59.25000000
H    18.63000107   7.16000032  54.66999817
H    20.94000053   7.57000017  53.97999573
H    23.22999954   8.00000000  54.48999786
H    22.23999977   8.97000027  58.52000427
H    13.71999931   8.60999966  58.52000427
H    24.82000160   8.89999962  56.02000427
H    24.25000000   9.89999962  57.44999695
S    13.23999977   7.07999992  54.00000000
C    10.52999973   6.93000031  54.75000000
C    11.82000065   7.26999998  55.05000305
C    12.10000038   7.88999987  56.31000137
C    11.07999992   8.11999989  57.21000290
C     9.72999954   7.76999998  56.93999863
C     8.64999962   7.88000011  57.84999847
C     7.34000015   7.59000015  57.54000092
C     7.07999992   7.13000011  56.22000122
C     8.10000038   6.98000002  55.30000305
C     9.47000027   7.13000011  55.66999817
C    13.55000019   7.96999979  56.45999908
C    14.30999947   7.53000021  55.34999847
C    15.70000076   7.44999981  55.30000305
C     5.73000002   6.67000008  55.73999786
H     5.22565651   7.43006659  55.14331055
H    10.21999931   6.48999977  53.80000305
H    11.21000099   8.43999958  58.23999786
H     8.89000034   8.26000023  58.83999634
H     6.53999996   7.78999996  58.23999786
H     7.82999992   6.67000008  54.29999924
H    16.21999931   7.17000008  54.38999939
H     5.09000015   6.44999981  56.59999847
H     5.91000032   5.69000006  55.28999710
S    17.34000015   8.60999966  52.63999939
C    20.09000015   8.76000023  51.93999863
C    18.78999901   8.43999958  51.63999939
C    18.39999962   8.18000031  50.28999710
C    19.34999847   8.05000019  49.29999924
C    20.69999886   8.34999943  49.61000061
C    21.71999931   8.19999981  48.61999893
C    23.03999901   8.46000004  48.88999939
C    23.42000008   8.98999977  50.15999603
C    22.46000099   9.07999992  51.13999939
C    21.09999847   8.69999981  50.93999863
C    16.97000122   7.92000008  50.12000275
C    16.23999977   8.21000004  51.30000305
C    14.86999989   8.42000008  51.43000031
C    24.82999992   9.34000015  50.56999969
H    25.15841484   8.67603207  51.36961746
H    20.39999962   9.23999977  52.87000275
H    19.22000122   7.55000019  48.34000015
H    21.34000015   7.86000013  47.65999603
H    23.68000031   8.26000023  48.04000092
H    22.65000153   9.55000019  52.09999847
H    14.45000076   8.73000050  52.36999893
H    25.35000038   9.39000034  49.59999847
H    24.72999954  10.36000061  50.97000122
S    13.69999981   7.49000025  47.81000137
C    10.95000076   7.50999975  48.54000092
C    12.25000000   7.90000010  48.75999832
C    12.67000008   8.27000046  50.07999802
C    11.75000000   8.42000008  51.11000061
C    10.44999981   7.90000010  50.90000153
C     9.46000004   8.05000019  51.90999985
C     8.11999989   7.82000017  51.66999817
C     7.65999985   7.36999989  50.40999985
C     8.60999966   7.26999998  49.41999817
C    10.00000000   7.55000019  49.58000183
C    14.11000061   8.30000019  50.26000214
C    14.84000015   7.86000013  49.12000275
C    16.21000099   7.67000008  48.96999741
C     6.19999981   7.03999996  50.18000031
H     5.73137236   7.72874069  49.47706223
H    10.67999935   7.20000029  47.52999878
H    11.97000027   8.75000000  52.11999893
H     9.88000011   8.64000034  52.72999573
H     7.44000006   7.92000008  52.50999832
H     8.23999977   6.90999985  48.46000290
H    16.70999908   7.50000000  48.02999878
H     5.73000002   7.18999958  51.16000366
H     6.06999969   5.98000002  49.93999863
