96

S    16.92000008   8.23000050  58.70999908
C    19.59000015   8.23999977  58.18000031
C    18.35000038   7.83999968  57.74000168
C    17.97000122   7.51999950  56.39999771
C    19.03000069   7.46000004  55.51000214
C    20.34000015   7.82999992  55.90000153
C    21.38000107   7.81000042  54.93999863
C    22.63999939   8.28999996  55.19000244
C    22.86000061   8.88000011  56.46999741
C    21.91999817   8.84000015  57.47000122
C    20.65000153   8.23999977  57.25000000
C    16.53000069   7.53999996  56.18000031
C    15.81999969   7.88999987  57.36000061
C    14.44000053   8.05999947  57.35000229
C    24.27000046   9.32999992  56.79999924
H    24.72665977   8.60219765  57.47071838
H    19.79999924   8.80000019  59.09000015
H    18.78000069   7.25000000  54.47999954
H    21.18000031   7.42000008  53.94000244
H    23.38999939   8.36999989  54.40999985
H    22.10000038   9.32999992  58.41999817
H    13.93000031   8.52999973  58.18999863
H    24.94999886   9.39000034  55.94999695
H    24.23999977  10.34999943  57.21000290
S    13.30000019   6.98999977  53.64999771
C    10.59000015   6.85999966  54.41999817
C    11.90999985   7.05999947  54.75999832
C    12.30000019   7.44999981  56.07999802
C    11.28000069   7.40000010  57.01000214
C     9.90999985   7.18999958  56.72000122
C     8.85000038   7.40000010  57.64999771
C     7.53999996   7.17999983  57.30999756
C     7.20000029   6.77999973  55.98999786
C     8.18000031   6.63000011  55.04000092
C     9.55000019   6.80999994  55.38000107
C    13.73999977   7.63000011  56.20999908
C    14.40999985   7.28999996  55.00999832
C    15.80000019   7.28999996  55.00999832
C     5.75000000   6.43000031  55.72999954
H     5.37402105   6.99751568  54.87872696
H    10.36000061   6.65000010  53.37999725
H    11.56000042   7.67000008  58.02000046
H     9.11000061   7.65999985  58.67000198
H     6.80999994   7.44999981  58.06999969
H     7.99000025   6.46000004  53.97999573
H    16.31000137   7.00999975  54.09999847
H     5.22000027   6.72999954  56.63999939
H     5.75999975   5.36000013  55.48999786
S    13.60000038   4.88000011  50.84000015
C    10.95999908   4.46000004  51.52999878
C    12.28000069   4.25000000  51.84000015
C    12.69999981   3.67000008  53.08000183
C    11.72999954   3.24000001  53.96999741
C    10.36000061   3.33999991  53.62999725
C     9.31999969   2.82999992  54.45000076
C     7.97999954   3.05000019  54.19000244
C     7.63999987   3.84999990  53.06999969
C     8.59000015   4.39000034  52.22999954
C     9.96000004   4.09999990  52.47000122
C    14.15999985   3.72000003  53.15999985
C    14.78000069   4.38000011  52.06999969
C    16.10999870   4.76999998  52.11000061
C     6.19000006   4.05999994  52.69000244
H     5.95444393   3.53892159  51.76205444
H    10.67999935   5.05000019  50.65999985
H    12.06999969   3.03999996  54.98000336
H     9.55000019   2.36000013  55.40000153
H     7.21000004   2.82000017  54.92000198
H     8.38000011   4.99000025  51.35000229
H    16.54000092   5.25000000  51.24000168
H     5.42999983   3.54999995  53.29999924
H     5.98999977   5.13999987  52.74000168
S    17.43999863   3.32999992  55.56999969
C    20.09000015   3.95000005  54.94999695
C    18.76000023   4.07999992  54.65000153
C    18.27000046   4.76000023  53.48999786
C    19.23999977   5.32999992  52.69000244
C    20.61000061   5.05000019  52.88000107
C    21.54000092   5.59000015  51.93999863
C    22.86999893   5.60999966  52.27000427
C    23.35000038   4.96000004  53.43000031
C    22.50000000   4.40000010  54.34999847
C    21.11000061   4.46999979  54.09999847
C    16.86000061   4.48000002  53.26000214
C    16.28999901   3.63999987  54.26000214
C    14.93999958   3.30000019  54.23999786
C    24.82000160   4.59000015  53.54000092
H    25.13237953   4.80298471  54.56233215
H    20.43000031   3.45000005  55.84999847
H    18.90999985   5.88000011  51.79999924
H    21.18999863   6.11999989  51.04999924
H    23.57000160   5.91000032  51.49000168
H    22.93999863   3.82999992  55.17000198
H    14.51000023   2.69000006  55.01999664
H    25.40999985   5.13000011  52.78999710
H    24.93999863   3.51000023  53.37999725
