96

S    16.97999954   8.43999958  58.62999725
C    19.63999939   8.75000000  57.91999817
C    18.37000084   8.39999962  57.52999878
C    18.05999947   7.90999985  56.20999908
C    19.07999992   7.83999968  55.27999878
C    20.36999893   8.31999969  55.61000061
C    21.47999954   8.30000019  54.71000290
C    22.73999977   8.69000053  55.07999802
C    23.02000046   9.06999969  56.42000198
C    22.01000023   9.02000046  57.35000229
C    20.69999886   8.63000011  56.97999954
C    16.61999893   7.76999998  56.11999893
C    15.86999989   8.09000015  57.28000259
C    14.50000000   8.26000023  57.41000366
C    24.41999817   9.39999962  56.88999939
H    24.91917229   8.74394417  57.60310364
H    19.84000015   9.21000004  58.88000107
H    18.78999901   7.40000010  54.33000183
H    21.38000107   7.95000029  53.68999863
H    23.48999977   8.69000053  54.29000092
H    22.14999962   9.42000008  58.36000061
H    14.11000061   8.43999958  58.40999985
H    25.05000114   9.52000046  56.00000000
H    24.34000015  10.39000034  57.36000061
S    13.43000031   7.73999977  53.59000397
C    10.71000004   7.36999989  54.27000046
C    12.00000000   7.64999962  54.64000320
C    12.30999947   7.97999954  56.00000000
C    11.28999901   8.27000046  56.88000107
C     9.96000004   7.96999979  56.51000214
C     8.89999962   8.19000053  57.43999863
C     7.62000036   7.78999996  57.14000320
C     7.28999996   7.23000002  55.87999725
C     8.28999996   7.13000011  54.93999863
C     9.64999962   7.46000004  55.20000076
C    13.75000000   8.07999992  56.24000168
C    14.44000053   7.76999998  55.05000305
C    15.80000019   7.49000025  55.00999832
C     5.82999992   6.96000004  55.58000183
H     5.52447510   7.34368229  54.60658264
H    10.47000027   7.05999947  53.25000000
H    11.47999954   8.48999977  57.93000031
H     9.22999954   8.47999954  58.43000031
H     6.86999989   8.14000034  57.85999680
H     8.06999969   6.80999994  53.92000198
H    16.34000015   7.23999977  54.09999847
H     5.27999973   7.37999964  56.43000031
H     5.69999981   5.88000011  55.72999954
S    13.57999992   5.23999977  50.86000061
C    10.92000008   4.94999981  51.65000153
C    12.25000000   4.77999973  51.93999863
C    12.71999931   4.13999987  53.13000107
C    11.75000000   3.75000000  54.03999710
C    10.38000011   3.77999997  53.70999908
C     9.42000008   3.24000001  54.61000061
C     8.15999985   2.92000008  54.15000153
C     7.71000004   3.50000000  52.94000244
C     8.56999969   4.15000010  52.08000183
C     9.94999981   4.26999998  52.42000198
C    14.18000031   4.11000013  53.22000122
C    14.75999928   4.65000010  52.04999924
C    16.11999893   4.92999983  51.98999786
C     6.21999979   3.51000023  52.65999603
H     5.94906616   3.80945349  51.64756012
H    10.47000027   5.52999973  50.84999847
H    12.05999947   3.17999983  54.91000366
H     9.81000042   2.96000004  55.58000183
H     7.44999981   2.38000011  54.77000427
H     8.30000019   4.79999971  51.25999832
H    16.54000092   5.32999992  51.07999802
H     5.80999947   2.50000000  52.84000015
H     5.69000006   4.09000015  53.43000031
S    17.50000000   3.72000003  55.58000183
C    20.13999939   4.23999977  54.79999924
C    18.79999924   4.21999979  54.48999786
C    18.29000092   4.86999989  53.31999969
C    19.22000122   5.42000008  52.44999695
C    20.61000061   5.35000038  52.68000031
C    21.60000038   5.86999989  51.79000092
C    22.95000076   5.88000011  52.06999969
C    23.38999939   5.19999981  53.22999954
C    22.50000000   4.63000011  54.12000275
C    21.09999847   4.77999973  53.90999603
C    16.84999847   4.71000004  53.16999817
C    16.31000137   4.07000017  54.31000137
C    14.96000099   3.73000002  54.31999969
C    24.86999893   4.94000006  53.39000320
H    25.29684067   5.46643782  54.24368286
H    20.42000008   3.72000003  55.72000122
H    18.81999969   5.88000011  51.55000305
H    21.19999886   6.25999975  50.86000061
H    23.71000099   6.25999975  51.39999771
H    22.84000015   4.17000008  55.02999878
H    14.56999969   3.28999996  55.22999573
H    25.28000069   5.27999973  52.43000031
H    25.00000000   3.86000013  53.48999786
