96

S    16.97999954   8.15999985  58.86000061
C    19.70999908   8.26000023  58.20000076
C    18.42000008   7.92000008  57.84999847
C    18.01000023   7.44000006  56.56999969
C    19.00000000   7.16000032  55.63999939
C    20.32999992   7.51999950  55.94999695
C    21.31999969   7.42999983  54.93999863
C    22.62000084   7.86000013  55.11000061
C    23.01000214   8.21000004  56.43000031
C    22.07999992   8.40999985  57.43000031
C    20.71000099   8.09000015  57.21000290
C    16.57999992   7.59999990  56.33999634
C    15.84000015   7.88000011  57.51999664
C    14.47000027   8.07999992  57.54000092
C    24.47000122   8.48999977  56.72000122
H    24.91781235   7.88581085  57.50900269
H    19.92000008   8.76000023  59.13999939
H    18.82999992   6.63000011  54.69999695
H    21.05999947   7.00999975  53.96999741
H    23.36999893   7.92999983  54.33000183
H    22.44999886   8.78999996  58.37999725
H    13.99000072   8.42000008  58.44999695
H    25.00999832   8.36999989  55.77999878
H    24.60000038   9.55000019  56.97000122
S    13.27999973   6.75000000  54.00000000
C    10.60999966   6.72999954  54.68999863
C    11.87999916   7.11999989  55.02999878
C    12.30999947   7.64999962  56.29000092
C    11.31999969   7.92000008  57.21000290
C     9.96999931   7.63999987  56.86000061
C     8.89999962   7.88999987  57.76000214
C     7.59999990   7.55999994  57.43999863
C     7.22000027   7.02000046  56.18999863
C     8.23000050   6.69000053  55.31000137
C     9.57999992   7.03000021  55.61999893
C    13.75000000   7.83999968  56.36000061
C    14.42999935   7.27999973  55.25000000
C    15.81999969   7.22000027  55.22999573
C     5.78000021   6.65999985  55.87999725
H     5.53713942   7.03857756  54.88712311
H    10.46000004   6.25999975  53.73000336
H    11.56000042   8.17000008  58.23999786
H     9.03999996   8.26000023  58.76999664
H     6.80999994   7.62000036  58.18000031
H     8.00000000   6.21999979  54.36000061
H    16.32999992   6.61000013  54.47999954
H     5.15999985   7.18999958  56.60999680
H     5.73000002   5.56999969  55.96000290
S    17.59000015   8.67999935  52.84999847
C    20.28000069   8.73999977  52.11999893
C    18.97999954   8.45000076  51.77000046
C    18.54999924   8.01999950  50.47999954
C    19.48999977   7.86000013  49.47999954
C    20.85000038   8.18000031  49.72999954
C    21.84000015   8.14000034  48.70999908
C    23.15000153   8.36000061  49.05000305
C    23.57000160   8.67999935  50.37000275
C    22.57999802   8.85999966  51.31000137
C    21.19999886   8.57999992  51.05999756
C    17.10000038   7.97999954  50.34999847
C    16.43000031   8.31999969  51.55000305
C    15.03999901   8.34000015  51.60999680
C    25.03000069   8.86999989  50.70999908
H    25.37236404   8.22093678  51.51597977
H    20.55000114   9.22999954  53.06000137
H    19.30999947   7.55999994  48.46000290
H    21.63999939   7.73000002  47.71999741
H    23.81999969   8.21000004  48.22000122
H    22.80999947   9.27999973  52.28000259
H    14.59000015   8.63000011  52.56000137
H    25.66999817   8.59000015  49.86000061
H    25.20999908   9.89999962  51.04000092
S    13.94999981   7.34000015  47.90000153
C    11.21000099   7.26000023  48.50000000
C    12.50000000   7.51999950  48.89999771
C    12.86000061   7.92000008  50.22999573
C    11.80999947   8.07999992  51.11000061
C    10.44999981   7.83999968  50.79999924
C     9.36999989   7.76000023  51.72999954
C     8.06999969   7.53000021  51.35000229
C     7.82999992   7.16000032  50.00000000
C     8.85000038   7.00999975  49.09999847
C    10.18000031   7.37999964  49.45999908
C    14.29999924   8.03999996  50.45999908
C    15.01000023   7.73999977  49.27000046
C    16.39000130   7.69999981  49.18000031
C     6.38000011   6.81999969  49.71000290
H     6.00290203   7.36074352  48.84196472
H    10.90999985   7.09000015  47.47000122
H    12.10000038   8.42000008  52.09999847
H     9.56999969   7.86999989  52.78999710
H     7.30000019   7.36000013  52.09000015
H     8.60000038   6.54999971  48.13999939
H    17.01000023   7.42999983  48.31999969
H     5.78999996   6.94999981  50.61999893
H     6.43000031   5.75999975  49.45000076
