96

S    16.81999969   8.86999989  58.79000092
C    19.47999954   9.25000000  58.01000214
C    18.22999954   8.76999950  57.71999741
C    17.87999916   8.39999962  56.38000107
C    18.85000038   8.36999989  55.40000153
C    20.17000008   8.80999947  55.65000153
C    21.31000137   8.53999996  54.82999802
C    22.57999802   8.85999966  55.25000000
C    22.82999992   9.55999947  56.46999741
C    21.78999901   9.59000015  57.36999893
C    20.46999931   9.23999977  56.98999786
C    16.43000031   8.43000031  56.18999863
C    15.73999977   8.78999996  57.37999725
C    14.34999943   8.78999996  57.44999695
C    24.23000145   9.96999931  56.84000015
H    24.71459961   9.37850189  57.61678696
H    19.71999931   9.57999992  59.02000046
H    18.55999947   7.83999968  54.48999786
H    21.09000015   8.01999950  53.89999771
H    23.35000038   8.75000000  54.50000000
H    21.87999916   9.67000008  58.46000290
H    13.93000031   9.09000015  58.40000153
H    24.86000061   9.84000015  55.94999695
H    24.23999977  11.05000019  57.02000046
S    13.25000000   7.44000006  53.88000107
C    10.55999947   7.28999996  54.54000092
C    11.80999947   7.77999973  54.85000229
C    12.15999985   8.27999973  56.14999771
C    11.17000008   8.36000061  57.11000061
C     9.85000038   7.95000029  56.81999969
C     8.80999947   7.86000013  57.78999710
C     7.55000019   7.36999989  57.50999832
C     7.20000029   6.91999960  56.20999908
C     8.22000027   6.96000004  55.27999878
C     9.53999996   7.44000006  55.52000046
C    13.60000038   8.46000004  56.31999969
C    14.29999924   8.10000038  55.13999939
C    15.67999935   8.19999981  55.02999878
C     5.78000021   6.63000011  55.79000092
H     5.46824265   7.24642849  54.94683838
H    10.44000053   6.60000038  53.70999908
H    11.44999981   8.55000019  58.15000153
H     9.22999954   8.32999992  58.68000031
H     6.86999989   7.28999996  58.34999847
H     8.13000011   6.74000025  54.22000122
H    16.17000008   8.01000023  54.08000183
H     5.05000019   6.80999994  56.59000015
H     5.72000027   5.55000019  55.61999893
S    17.53999901   9.77000046  52.61000061
C    20.22000122   9.68000031  51.84000015
C    18.92000008   9.30999947  51.59000015
C    18.54999924   8.60000038  50.40999985
C    19.51000023   8.28999996  49.45999908
C    20.85000038   8.69999981  49.68000031
C    21.87999916   8.45000076  48.73000336
C    23.16999817   8.78000069  49.06000137
C    23.59000015   9.44000053  50.25000000
C    22.56000137   9.82999992  51.07999802
C    21.21000099   9.46000004  50.84999847
C    17.10000038   8.56000042  50.31999969
C    16.39999962   9.06999969  51.44000244
C    15.01000023   9.18000031  51.45999908
C    25.02000046   9.82999992  50.51000214
H    25.50510788   9.25928402  51.30186844
H    20.48000145  10.19999981  52.76000214
H    19.11000061   8.05000019  48.47999954
H    21.61999893   8.14000034  47.71999741
H    23.97999954   8.47999954  48.40000153
H    22.70999908  10.34000015  52.02999878
H    14.50000000   9.56999969  52.32999802
H    25.58000183   9.57999992  49.59000015
H    25.17000008  10.90000057  50.70000076
S    13.99000072   7.96000004  47.81999969
C    11.26000023   7.82999992  48.47000122
C    12.53000069   8.27999973  48.76999664
C    12.86999893   8.73999977  50.07999802
C    11.85999966   8.85999966  51.00999832
C    10.52000046   8.48999977  50.73999786
C     9.43000031   8.67000008  51.63999939
C     8.14000034   8.28999996  51.35000229
C     7.92000008   7.59000015  50.13000107
C     8.92000008   7.42999983  49.20000076
C    10.22999954   7.94000053  49.43999863
C    14.30999947   8.78999996  50.31000137
C    15.06000042   8.32999992  49.19000244
C    16.44000053   8.23999977  49.12000275
C     6.52999973   7.07999992  49.86000061
H     6.01723480   7.76368666  49.18343353
H    11.18000031   7.26999998  47.54000092
H    12.05000019   9.02999973  52.05999756
H     9.68999958   9.13999939  52.58999634
H     7.26000023   8.56000042  51.91999817
H     8.78999996   6.85999966  48.29000092
H    16.95000076   7.79999971  48.27000046
H     6.03999996   6.96000004  50.84000015
H     6.70000029   6.07999992  49.43999863
