96

S    17.25000000   8.69999981  58.62999725
C    19.90999985   8.67999935  57.93000031
C    18.63000107   8.34999943  57.56999969
C    18.27999878   7.96000004  56.24000168
C    19.27999878   7.63000011  55.34000015
C    20.61000061   7.95000029  55.68999863
C    21.68000031   7.81000042  54.77000427
C    22.96999931   8.13000011  55.12000275
C    23.25000000   8.75000000  56.36000061
C    22.23999977   9.03999996  57.25000000
C    20.94000053   8.56000042  56.95000076
C    16.82999992   7.92999983  56.12999725
C    16.13999939   8.25000000  57.32999802
C    14.75999928   8.31999969  57.43999863
C    24.64999962   9.26999950  56.59999847
H    25.08507729   8.59242058  57.33463669
H    20.12000084   9.07999992  58.92000198
H    19.09000015   7.36000013  54.29999924
H    21.40000153   7.26000023  53.87000275
H    23.80000114   7.95000029  54.43999863
H    22.36999893   9.51000023  58.22000122
H    14.39000034   8.78000069  58.34999847
H    25.28000069   9.34000015  55.70000076
H    24.61000061  10.24000072  57.11999893
S    13.48999977   7.09999990  53.86000061
C    10.78999996   7.16000032  54.59999847
C    12.10999966   7.39000034  54.93999863
C    12.51999950   7.88000011  56.22000122
C    11.51999950   8.14999962  57.12999725
C    10.14999962   7.95000029  56.81999969
C     9.15000057   8.02999973  57.83000183
C     7.82999992   7.82999992  57.50999832
C     7.40000010   7.53000021  56.18999863
C     8.36999989   7.40999985  55.21999741
C     9.76000023   7.50000000  55.51000214
C    13.96999931   7.96000004  56.33999634
C    14.61999989   7.50999975  55.17000198
C    16.01000023   7.55000019  55.06999969
C     6.01999998   7.02000046  55.81999969
H     5.62226677   7.52426910  54.93930435
H    10.44000053   6.94999981  53.60000229
H    11.78999996   8.43999958  58.13999939
H     9.43000031   8.19999981  58.86000061
H     7.07999992   7.86000013  58.29000092
H     8.05000019   7.07000017  54.23999786
H    16.47999954   7.09999990  54.20000076
H     5.31000042   7.26000023  56.63000107
H     5.96000004   5.95000029  55.61999893
S    13.94999981   5.03999996  50.89000320
C    11.28000069   4.50000000  51.39999771
C    12.57999992   4.42000008  51.83000183
C    12.97999954   3.86000013  53.09000015
C    11.94000053   3.51999998  53.94000244
C    10.57000065   3.60000014  53.59000397
C     9.52000046   3.28000021  54.51000214
C     8.21000004   3.54999995  54.18000031
C     7.90000010   4.09000015  52.90999985
C     8.88000011   4.26000023  51.95999908
C    10.25000000   4.05999994  52.27000427
C    14.40999985   4.00999975  53.30999756
C    15.06000042   4.63000011  52.22000122
C    16.40999985   4.97000027  52.22000122
C     6.52999973   4.67999983  52.65999603
H     6.03126335   4.08151627  51.89764404
H    11.02000046   5.09000015  50.52000046
H    12.27000046   3.16000009  54.91000366
H     9.77999973   2.89999986  55.48999786
H     7.44999981   3.51999998  54.94999695
H     8.60999966   4.48999977  50.93000031
H    16.79000092   5.65999985  51.46999741
H     5.96000004   4.73000002  53.59000397
H     6.72999954   5.73000002  52.38999939
S    17.72999954   3.93000007  55.77000046
C    20.43000031   4.15000010  55.00999832
C    19.10000038   4.33999968  54.72000122
C    18.65999985   4.77999973  53.43000031
C    19.60000038   5.19000006  52.50000000
C    20.97999954   5.18000031  52.80000305
C    22.01000023   5.52999973  51.86999893
C    23.31999969   5.18000031  52.09000015
C    23.67000198   4.53000021  53.30999756
C    22.75000000   4.30999994  54.29999924
C    21.37000084   4.56999969  54.03999710
C    17.20999908   4.67999983  53.33000183
C    16.56999969   4.07999992  54.43999863
C    15.21999931   3.74000025  54.41999817
C    25.06999969   4.07000017  53.63999939
H    25.46888542   4.66832876  54.45914078
H    20.84000015   3.45999980  55.73999786
H    19.32999992   5.52999973  51.50000000
H    21.68999863   6.00000000  50.93999863
H    24.01000023   5.38999987  51.27999878
H    22.88999939   3.81000018  55.26000214
H    14.85000038   3.17000008  55.27000046
H    25.65000153   4.21999979  52.71999741
H    25.10000038   3.00999999  53.93000031
