96

S    16.77999878   8.42000008  58.68999863
C    19.47000122   8.47999954  57.97000122
C    18.20000076   8.05000019  57.69000244
C    17.84000015   7.57999992  56.38999939
C    18.78999901   7.55999994  55.38000107
C    20.13000107   7.86000013  55.72000122
C    21.17000198   7.81000042  54.75000000
C    22.49000168   8.01999950  55.08999634
C    22.80999947   8.73000050  56.27999878
C    21.83000183   8.86999989  57.22999954
C    20.51000214   8.38999939  57.00000000
C    16.39000130   7.59999990  56.22000122
C    15.67999935   7.85000038  57.42000198
C    14.28999996   7.88999987  57.44999695
C    24.25000000   9.03999996  56.60999680
H    24.69697380   8.30923271  57.28400803
H    19.60000038   9.21000004  58.76999664
H    18.42000008   7.21000004  54.41999817
H    20.86000061   7.42999983  53.77999878
H    23.29000092   7.75000000  54.40000153
H    22.06000137   9.44000053  58.13000107
H    13.81000042   8.30000019  58.34000015
H    24.82999992   9.18000031  55.70000076
H    24.30999947  10.06999969  56.97000122
S    13.17999935   6.65000010  53.85000229
C    10.52000046   6.50000000  54.51000214
C    11.77999973   6.88000011  54.91000366
C    12.11999989   7.36000013  56.22000122
C    11.07999992   7.42999983  57.11999893
C     9.72000027   7.20000029  56.77000046
C     8.60000038   7.30000019  57.63999939
C     7.30000019   7.00999975  57.30999756
C     7.09000015   6.38999987  56.04000092
C     8.14999962   6.23000050  55.18000031
C     9.48000050   6.67000008  55.45999908
C    13.55999947   7.57999992  56.30000305
C    14.27000046   7.26000023  55.12000275
C    15.65000057   7.40000010  55.05000305
C     5.71000004   6.00000000  55.56999969
H     5.15515375   6.71134090  54.95824814
H    10.40999985   6.03999996  53.53000259
H    11.33999920   7.64999962  58.15000153
H     8.80999947   7.73000002  58.61999893
H     6.52999973   7.22000027  58.04000092
H     8.05999947   5.72000027  54.22000122
H    16.07999992   7.11999989  54.09000015
H     5.09000015   5.51999998  56.32999802
H     6.05000019   5.17000008  54.93999863
S    17.19000053   9.02999973  52.74000168
C    19.90999985   9.11999989  52.01000214
C    18.59000015   8.90999985  51.65999985
C    18.20000076   8.46000004  50.35999680
C    19.19999886   8.09000015  49.47000122
C    20.55000114   8.38000011  49.77000427
C    21.61000061   8.01000023  48.88999939
C    22.89999962   8.39999962  49.15999985
C    23.25000000   9.02000046  50.38999939
C    22.27000046   9.27999973  51.31999969
C    20.92000008   8.96000004  51.03000259
C    16.77000046   8.27999973  50.20000076
C    16.10000038   8.60999966  51.39999771
C    14.70999908   8.55000019  51.47999573
C    24.70000076   9.38000011  50.65000153
H    25.14355087   9.08668423  51.60149002
H    20.22000122   9.39000034  53.02000046
H    19.06999969   7.50000000  48.56999969
H    21.30000114   7.42000008  48.02999878
H    23.69999886   8.01999950  48.52000427
H    22.44999886   9.71000004  52.29999924
H    14.22999954   8.85999966  52.41000366
H    25.34000015   8.85999966  49.93000031
H    24.92000198  10.44000053  50.44000244
S    13.63000011   7.00000000  47.97000122
C    10.95000076   6.94999981  48.66000366
C    12.23999977   7.23999977  49.03999710
C    12.57999992   7.85000038  50.28999710
C    11.51000023   8.00000000  51.14999771
C    10.19000053   7.55000019  50.90999985
C     9.06000042   7.72000027  51.76000214
C     7.76000023   7.46999979  51.40999603
C     7.50000000   6.97000027  50.10000229
C     8.55000019   6.75000000  49.25000000
C     9.89999962   6.98000002  49.61999893
C    14.01000023   8.10000038  50.35999680
C    14.72000027   7.63000011  49.22000122
C    16.10000038   7.72000027  49.09999847
C     6.09000015   6.60000038  49.68999863
H     5.65646982   7.30359840  48.97929382
H    10.80999947   6.67999983  47.62000275
H    11.59999943   8.48999977  52.11999893
H     9.26999950   8.17000008  52.72999573
H     7.00000000   7.73999977  52.12999725
H     8.30999947   6.50000000  48.22000122
H    16.70999908   7.39000034  48.27000046
H     5.38999987   6.38000011  50.51000214
H     6.14000034   5.61999989  49.20999908
