96

S    16.95999908   8.40999985  58.88999939
C    19.62000084   8.61999989  58.25000000
C    18.36000061   8.27000046  57.81000137
C    17.97000122   7.86999989  56.50000000
C    18.98999977   7.73999977  55.56999969
C    20.31999969   8.07999992  55.94999695
C    21.35999870   7.97999954  54.99000168
C    22.69000053   8.15999985  55.31000137
C    23.00000000   8.60999966  56.60999680
C    22.01999855   8.76999950  57.56000137
C    20.63999939   8.56000042  57.25999832
C    16.53000069   7.78999996  56.32999802
C    15.85000038   8.13000011  57.52999878
C    14.47000027   8.27999973  57.60000229
C    24.40999985   9.02999973  57.00000000
H    24.80327034   8.32926559  57.73648453
H    19.79999924   8.76999950  59.31000137
H    18.63999939   7.46999979  54.58000183
H    20.98999977   7.63999987  54.02000046
H    23.48999977   7.94000053  54.61000061
H    22.22999954   9.18000031  58.54000092
H    14.07999992   8.52000046  58.57999802
H    25.09000015   9.02999973  56.13999939
H    24.57999992  10.03000069  57.39999771
S    13.30000019   7.42000008  53.89999771
C    10.62999916   7.11999989  54.56999969
C    11.87999916   7.55000019  54.95999908
C    12.27000046   7.86999989  56.30000305
C    11.23999977   7.86000013  57.22999954
C     9.89000034   7.69000006  56.83000183
C     8.85999966   7.76000023  57.81000137
C     7.55000019   7.44000006  57.51999664
C     7.23000002   7.09999990  56.18000031
C     8.23000050   6.93000031  55.24000168
C     9.59999943   7.11000013  55.54999924
C    13.69999981   8.03999996  56.45000076
C    14.40000057   7.73999977  55.25000000
C    15.76000023   7.44000006  55.21999741
C     5.78999996   6.80000019  55.81999969
H     5.45564890   7.49715757  55.05170059
H    10.38000011   6.88000011  53.54000092
H    11.42000008   8.01999950  58.29000092
H     9.13999939   7.96000004  58.83999634
H     6.80000019   7.73000002  58.25000000
H     7.86999989   6.61999989  54.26000214
H    16.17000008   6.98999977  54.31999969
H     5.01999950   6.81999969  56.59999847
H     5.82999992   5.75000000  55.51000214
S    17.04000092   8.93999958  52.69000244
C    19.63999939   9.35999966  51.95000076
C    18.42000008   8.84000015  51.58000183
C    18.06999969   8.36000061  50.27999878
C    19.12999916   8.15999985  49.40999985
C    20.43999863   8.47999954  49.86000061
C    21.56999969   8.30999947  49.01000214
C    22.84000015   8.64000034  49.40000153
C    23.12999916   9.30000019  50.63000107
C    22.06999969   9.48000050  51.49000168
C    20.75000000   9.15999985  51.09000397
C    16.62999916   8.36000061  50.11000061
C    15.95999908   8.78999996  51.29000092
C    14.59000015   9.03999996  51.29000092
C    24.51999855   9.73999977  51.00999832
H    24.91770554   9.00139999  51.70598602
H    19.81999969   9.92999935  52.85999680
H    18.98999977   7.86999989  48.36999893
H    21.35999870   8.01000023  47.98999786
H    23.59999847   8.38999939  48.66000366
H    22.20000076   9.85000038  52.50999832
H    14.01000023   9.35000038  52.15000153
H    25.10000038   9.68000031  50.07999802
H    24.56000137  10.73999977  51.45999908
S    13.42000008   7.48000050  47.75000000
C    10.73999977   7.62000036  48.41999817
C    12.03999996   7.88000011  48.79000092
C    12.43000031   8.34000015  50.08999634
C    11.40999985   8.56000042  51.00999832
C    10.06999969   8.32999992  50.63999939
C     9.02999973   8.43999958  51.60999680
C     7.72000027   8.13000011  51.32999802
C     7.36999989   7.63999987  50.04000092
C     8.34999943   7.44999981  49.09000015
C     9.70000076   7.79999971  49.36000061
C    13.86999989   8.50000000  50.21999741
C    14.51000023   8.05999947  49.02999878
C    15.88999939   7.97999954  48.97999573
C     6.01000023   7.05999947  49.73999786
H     5.46893167   7.65802288  49.00671005
H    10.57999992   7.11000013  47.47000122
H    11.72999954   8.76000023  52.02999878
H     9.39999962   8.57999992  52.63000107
H     7.02000046   8.10999966  52.15000153
H     8.10000038   6.96000004  48.15000153
H    16.31999969   7.62000036  48.04999924
H     5.36999989   6.84000015  50.59999847
H     6.28999996   6.05999994  49.36999893
