96

S    16.84999847   8.53999996  58.81000137
C    19.60000038   8.69000053  58.13000107
C    18.30000114   8.36000061  57.81999969
C    17.93000031   7.81000042  56.55000305
C    18.94000053   7.50999975  55.65000153
C    20.29999924   7.79999971  55.90999985
C    21.37000084   7.79999971  54.97000122
C    22.67000008   8.11999989  55.27999878
C    22.98000145   8.48999977  56.62000275
C    21.97999954   8.55000019  57.56000137
C    20.62000084   8.34000015  57.19999695
C    16.48999977   7.68000031  56.38999939
C    15.72999954   8.00000000  57.54000092
C    14.35999966   8.19999981  57.50999832
C    24.40000153   8.82999992  57.02999878
H    24.78504181   8.14547825  57.78582382
H    19.93000031   9.06000042  59.09999847
H    18.76000023   7.27999973  54.59999847
H    20.90999985   7.55000019  54.02000046
H    23.32999992   8.38999939  54.45999908
H    22.10000038   9.06999969  58.50999832
H    13.92000008   8.82000065  58.29000092
H    25.00999832   8.86999989  56.11999893
H    24.43000031   9.86999989  57.36999893
S    13.28999996   7.42999983  53.81999969
C    10.53999996   7.32999992  54.40000153
C    11.82999992   7.60999966  54.80999756
C    12.18999958   8.00000000  56.13999939
C    11.13999939   8.15999985  57.02999878
C     9.85000038   7.71000004  56.69000244
C     8.85000038   7.53000021  57.68000031
C     7.55999994   7.18999958  57.32999802
C     7.18999958   6.98999977  55.97000122
C     8.14999962   7.03000021  54.99000168
C     9.48000050   7.37999964  55.34000015
C    13.61999989   7.88999987  56.36000061
C    14.39000034   7.57999992  55.20999908
C    15.77000046   7.49000025  55.20000076
C     5.78000021   6.63999987  55.56999969
H     5.29597950   7.34467697  54.89379501
H    10.36999893   7.07000017  53.36000061
H    11.44999981   8.42000008  58.04000092
H     9.02999973   7.95000029  58.67000198
H     6.75000000   7.21000004  58.04999924
H     7.88000011   6.76999998  53.95999908
H    16.31000137   7.25000000  54.29000092
H     5.09000015   6.48000002  56.40999603
H     5.88999987   5.60999966  55.20000076
S    13.80000019   5.21000004  50.77000046
C    11.10999966   4.98000002  51.62000275
C    12.44999981   4.73000002  51.81000137
C    12.89000034   4.21000004  53.06999969
C    11.92000008   3.88999987  53.99000168
C    10.52000046   4.00999975  53.82999802
C     9.52000046   3.40999985  54.65000153
C     8.18000031   3.45000005  54.36000061
C     7.82999992   4.01999998  53.11000061
C     8.73999977   4.51000023  52.21000290
C    10.13000011   4.50000000  52.52999878
C    14.34000015   4.23999977  53.20999908
C    14.93999958   4.82999992  52.06999969
C    16.29999924   5.13000011  52.06999969
C     6.35999966   4.34999990  52.91999817
H     5.95524120   3.83872581  52.04657364
H    10.75000000   5.50000000  50.73999786
H    12.22000027   3.33999991  54.87999725
H     9.96000004   2.86999989  55.47999954
H     7.49000025   3.12000012  55.13000107
H     8.32999992   4.92999983  51.29000092
H    16.68000031   5.72000027  51.24000168
H     5.78000021   3.98000002  53.76999664
H     6.10000038   5.42000008  52.84000015
S    17.70000076   3.67000008  55.45000076
C    20.35000038   4.23999977  54.78000259
C    19.01000023   4.38000011  54.50000000
C    18.55999947   4.94999981  53.27000046
C    19.48999977   5.38999987  52.34000397
C    20.88000107   5.38999987  52.61000061
C    21.84999847   5.69000006  51.62000275
C    23.18000031   5.60999966  51.95000076
C    23.57000160   5.09000015  53.22000122
C    22.65999985   4.61999989  54.13000107
C    21.27000046   4.78999996  53.86000061
C    17.13000107   4.73000002  53.13000107
C    16.48999977   4.15000010  54.25000000
C    15.13000011   3.86000013  54.29999924
C    25.05000114   5.15999985  53.54000092
H    25.34059906   4.54336071  54.39053726
H    20.71000099   3.72000003  55.66999817
H    19.19999886   5.60999966  51.31999969
H    21.45999908   5.96000004  50.63999939
H    23.95999908   6.05999994  51.33999634
H    22.90999985   4.32000017  55.14999771
H    14.68999958   3.51999998  55.24000168
H    25.40999985   6.15999985  53.80000305
H    25.62999916   4.85000038  52.67000198
