96

S    17.15999985   9.01000023  58.70999908
C    19.85999870   9.19999981  57.98999786
C    18.60000038   8.71999931  57.70999908
C    18.30000114   8.10999966  56.45000076
C    19.31999969   7.96999979  55.52999878
C    20.65000153   8.38000011  55.80999756
C    21.63000107   8.39999962  54.78000259
C    22.95000076   8.63000011  55.10000229
C    23.26000023   9.07999992  56.40999603
C    22.27000046   9.32999992  57.34000397
C    20.94000053   8.88000011  57.12999725
C    16.86000061   8.13000011  56.19999695
C    16.13000107   8.52000046  57.35000229
C    14.75000000   8.63000011  57.37999725
C    24.63999939   9.61999989  56.70000076
H    25.06704903   9.07195282  57.53986740
H    19.97999954   9.94999981  58.76999664
H    19.15999985   7.65999985  54.50000000
H    21.37000084   8.15999985  53.75999832
H    23.81000137   8.47999954  54.47000122
H    22.39999962   9.72999954  58.34000015
H    14.14999962   8.65999985  58.27999878
H    25.35000038   9.63999939  55.86000061
H    24.43000031  10.67000008  56.90999985
S    13.61999989   7.46000004  53.70999908
C    10.95999908   7.28999996  54.40000153
C    12.22000027   7.68000031  54.79000092
C    12.58999920   8.14999962  56.09000397
C    11.56000042   8.25000000  57.01000214
C    10.24000072   7.90000010  56.62000275
C     9.19000053   8.05000019  57.56000137
C     7.88999987   7.76999998  57.19999695
C     7.53000021   7.13000011  55.97999954
C     8.57999992   6.84000015  55.13999939
C     9.89999962   7.34000015  55.34000015
C    14.02999973   8.30000019  56.22000122
C    14.70999908   8.03999996  54.99000168
C    16.09000015   8.02999973  55.04000092
C     6.09000015   6.83000040  55.63999939
H     5.58487272   7.51298904  54.95701218
H    10.84000015   6.86999989  53.40000153
H    11.82000065   8.56000042  58.01000214
H     9.36999989   8.52000046  58.52000427
H     7.13999987   8.00000000  57.95000076
H     8.22000027   6.28000021  54.27999878
H    16.60000038   7.69999981  54.13999939
H     5.44000053   6.88000011  56.52000046
H     6.05000019   5.79999971  55.27999878
S    17.63000107   9.64999962  52.58999634
C    20.29000092   9.73999977  51.83000183
C    19.01000023   9.36999989  51.51000214
C    18.71000099   8.67000008  50.30000305
C    19.70999908   8.45000076  49.36000061
C    21.02999878   8.85000038  49.68000031
C    22.09000015   8.56000042  48.79000092
C    23.40999985   8.76999950  49.10999680
C    23.71999931   9.48999977  50.28999710
C    22.72999954   9.77000046  51.19999695
C    21.35999870   9.47000027  50.93999863
C    17.27000046   8.45000076  50.20999908
C    16.57999992   8.93999958  51.35000229
C    15.19999981   9.10000038  51.27999878
C    25.10999870  10.03999901  50.58000183
H    25.67115974   9.39360046  51.25481033
H    20.52000046  10.26999950  52.76000214
H    19.50000000   8.11999989  48.34999847
H    21.87999916   8.19000053  47.78999710
H    24.11999893   8.57999992  48.30999756
H    22.86999893  10.29999924  52.12999725
H    14.70999908   9.48999977  52.16999817
H    25.51000214  10.08999920  49.55999756
H    25.07999802  11.09000015  50.89000320
S    14.15999985   7.83999968  47.62000275
C    11.44999981   7.79999971  48.25000000
C    12.72999954   8.15999985  48.61000061
C    13.09000015   8.60000038  49.92000198
C    12.09000015   8.82999992  50.84000015
C    10.77000046   8.43000031  50.51000214
C     9.73999977   8.36000061  51.50000000
C     8.42000008   8.11999989  51.23000336
C     8.09000015   7.92000008  49.86000061
C     9.03999996   7.82000017  48.87000275
C    10.39999962   8.11999989  49.15000153
C    14.52999973   8.78000069  50.10000229
C    15.22999954   8.34000015  48.95000076
C    16.59000015   8.09000015  49.03999710
C     6.65000010   7.53000021  49.61000061
H     6.19252586   8.16617584  48.85230637
H    11.25000000   7.30000019  47.30999756
H    12.15999985   9.30999947  51.81999969
H    10.03000069   8.60999966  52.51999664
H     7.63999987   8.10000038  51.98999786
H     8.80999947   7.42999983  47.88999939
H    17.21999931   7.79999971  48.20999908
H     6.19999981   7.59000015  50.61000061
H     6.65999985   6.47000027  49.34000015
