96

S    17.07999992   8.48999977  58.76999664
C    19.78000069   8.67000008  58.15999985
C    18.52000046   8.32999992  57.75000000
C    18.20000076   7.90999985  56.42000198
C    19.27999878   7.86999989  55.56000137
C    20.59999847   8.23000050  55.93999863
C    21.70000076   8.11999989  55.05000305
C    22.98999977   8.34999943  55.47999954
C    23.22999954   8.97000027  56.73999786
C    22.21999931   8.97999954  57.67000198
C    20.89999962   8.60000038  57.29000092
C    16.75000000   7.81000042  56.26999664
C    15.98000050   8.11999989  57.42000198
C    14.60000038   8.06999969  57.50000000
C    24.54000092   9.65999985  57.04000092
H    25.13555145   8.99354935  57.66390991
H    19.90999985   8.94999981  59.20999908
H    19.11999893   7.44999981  54.56999969
H    21.54000092   7.69999981  54.06000137
H    23.75999832   8.26000023  54.72999954
H    22.47999954   9.39000034  58.63999939
H    14.06000042   8.23999977  58.43000031
H    25.00999832   9.85999966  56.05999756
H    24.38999939  10.64000034  57.50999832
S    13.53000069   7.11999989  53.76999664
C    10.80999947   6.80999994  54.52999878
C    12.10999966   7.17999983  54.82999802
C    12.43000031   7.62000036  56.16000366
C    11.39999962   7.73000002  57.08000183
C    10.07999992   7.30999994  56.79999924
C     9.04999924   7.48000050  57.77000046
C     7.78999996   7.07999992  57.38999939
C     7.42000008   6.76000023  56.05999756
C     8.42000008   6.56000042  55.13000107
C     9.77000046   6.78999996  55.48999786
C    13.86000061   7.76000023  56.35000229
C    14.57999992   7.46000004  55.15999603
C    15.97000027   7.49000025  55.15999603
C     6.00000000   6.39999962  55.70000076
H     5.61559772   7.06202555  54.92407608
H    10.40999985   6.51000023  53.56999969
H    11.57999992   8.13000011  58.06999969
H     9.32999992   7.85000038  58.75999832
H     6.94000006   7.11000013  58.06000137
H     8.07999992   6.43000031  54.09999847
H    16.32999992   7.04999971  54.22999954
H     5.40000010   6.61000013  56.59999847
H     5.95000029   5.35000038  55.38000107
S    17.43999863   8.69999981  52.60000229
C    20.17000008   9.07999992  52.00000000
C    18.89999962   8.75000000  51.59999847
C    18.53999901   8.45000076  50.24000168
C    19.59000015   8.43999958  49.34999847
C    20.92000008   8.80000019  49.65000153
C    22.03000069   8.76000023  48.75000000
C    23.31999969   9.02000046  49.15000153
C    23.57999992   9.36999989  50.50000000
C    22.55000114   9.39000034  51.40999603
C    21.21000099   9.07999992  51.03000259
C    17.11000061   8.27999973  50.00000000
C    16.39000130   8.61999989  51.17000198
C    15.00000000   8.69999981  51.24000168
C    24.93999863   9.89000034  50.90000153
H    25.37305069   9.34336185  51.73770905
H    20.36000061   9.39999962  53.02000046
H    19.44000053   8.14999962  48.30999756
H    21.78999901   8.36000061  47.77000046
H    24.15999985   9.06000042  48.46000290
H    22.80999947   9.53999996  52.44999695
H    14.47999954   9.01000023  52.14000320
H    25.66999817   9.84000015  50.07999802
H    24.89999962  10.95999908  51.14999771
S    13.85000038   7.69999981  47.60000229
C    11.13999939   7.53999996  48.16999817
C    12.41000080   7.82000017  48.61999893
C    12.82999992   8.25000000  49.92000198
C    11.75000000   8.43999958  50.77000046
C    10.40999985   8.09000015  50.48999786
C     9.40999985   8.10999966  51.50000000
C     8.10999966   7.76000023  51.23000336
C     7.82000017   7.30999994  49.92000198
C     8.76999950   7.34000015  48.92000198
C    10.11000061   7.77999973  49.10999680
C    14.26000023   8.45000076  50.07999802
C    14.98000050   8.10999966  48.90999603
C    16.36000061   7.95000029  48.87000275
C     6.39999962   6.86999989  49.61999893
H     5.91591644   7.56765032  48.93658829
H    10.95999908   6.96000004  47.28000259
H    11.87999916   8.97000027  51.70000076
H     9.72000027   8.47999954  52.48000336
H     7.23999977   7.79999971  51.88000107
H     8.67000008   6.94000006  47.91999817
H    16.95000076   7.82999992  47.97000122
H     5.75000000   6.53999996  50.44000244
H     6.48000002   5.98000002  48.97999573
