96

S    17.05999947   8.31999969  58.89999771
C    19.72999954   8.40999985  58.23999786
C    18.45999908   8.10999966  57.83000183
C    18.11000061   7.59000015  56.53999710
C    19.10000038   7.55999994  55.58000183
C    20.38999939   7.99000025  55.93999863
C    21.45000076   7.82000017  55.00000000
C    22.78000069   7.99000025  55.27999878
C    23.11000061   8.42000008  56.59999847
C    22.13999939   8.69000053  57.52999878
C    20.76999855   8.39999962  57.27000427
C    16.65999985   7.40000010  56.46999741
C    15.93999958   7.76999998  57.63999939
C    14.55999947   7.86999989  57.72999573
C    24.56999969   8.64999962  56.90999985
H    25.00378609   8.09531975  57.74201965
H    19.89999962   8.50000000  59.31000137
H    18.93000031   7.14999962  54.58000183
H    21.28999901   7.46999979  53.97999573
H    23.51000023   7.96000004  54.47999954
H    22.36000061   9.10000038  58.52000427
H    13.96999931   8.23999977  58.55999756
H    25.15000153   8.32999992  56.04000092
H    24.71999931   9.72000027  57.09999847
S    13.40000057   7.03000021  54.02000046
C    10.70000076   7.02000046  54.62999725
C    11.97999954   7.34000015  55.02999878
C    12.38999939   7.73999977  56.33999634
C    11.35000038   7.79999971  57.25000000
C    10.03000069   7.36999989  56.97000122
C     9.02999973   7.32999992  57.97999954
C     7.72000027   7.09999990  57.63999939
C     7.32999992   6.78999996  56.31000137
C     8.30999947   6.78999996  55.34000015
C     9.68999958   6.98999977  55.61999893
C    13.83999920   7.71000004  56.53999710
C    14.52999973   7.34000015  55.35999680
C    15.90000057   7.11000013  55.34000015
C     5.88999987   6.50000000  55.97000122
H     5.55768776   7.10806131  55.12861633
H    10.47000027   6.76999998  53.60000229
H    11.73999977   7.90999985  58.26000214
H     9.22999954   7.73999977  58.96999741
H     6.88000011   7.11999989  58.34000015
H     8.01000023   6.60000038  54.31999969
H    16.32999992   6.93000031  54.36000061
H     5.40000010   6.75000000  56.90999985
H     5.79999971   5.40999985  55.90999985
S    13.73999977   5.19999981  50.97999954
C    11.10000038   4.55000019  51.65999985
C    12.43999958   4.39000034  51.88999939
C    12.89999962   3.78999996  53.09999847
C    12.00000000   3.24000001  53.99000168
C    10.60999966   3.25000000  53.72000122
C     9.70000076   2.86000013  54.73999786
C     8.34999943   3.03999996  54.59000015
C     7.90000010   3.75999975  53.46000290
C     8.75000000   4.15999985  52.45999908
C    10.15999985   3.98999977  52.56999969
C    14.34000015   3.98000002  53.29000092
C    14.89999962   4.74000025  52.23999786
C    16.26000023   5.00999975  52.15000153
C     6.40999985   3.95000005  53.25000000
H     6.03271675   3.45881987  52.35306168
H    10.73999977   5.19999981  50.86000061
H    12.27000046   2.84000015  54.97000122
H    10.21000004   2.44000006  55.59999847
H     7.69000006   2.57999992  55.33000183
H     8.38000011   4.82999992  51.69000244
H    16.72999954   5.50000000  51.30000305
H     5.72000027   3.60000014  54.02999878
H     6.19999981   5.01999950  53.09999847
S    17.64000130   3.54999995  55.54999924
C    20.30999947   4.11000013  54.92000198
C    18.97999954   4.13999987  54.54999924
C    18.53000069   4.67999983  53.30999756
C    19.47999954   5.19999981  52.43999863
C    20.85000038   5.07999992  52.76000214
C    21.84000015   5.69000006  51.93999863
C    23.19999886   5.61999989  52.16999817
C    23.62999916   4.94999981  53.34000015
C    22.70999908   4.48999977  54.26000214
C    21.30000114   4.55999994  54.02000046
C    17.07999992   4.55999994  53.20000076
C    16.44000053   3.93000007  54.29000092
C    15.10000038   3.58999991  54.40000153
C    25.10999870   4.85000038  53.61000061
H    25.33765793   4.64368486  54.65580368
H    20.59999847   3.74000025  55.90000153
H    19.15999985   5.69999981  51.52999878
H    21.44000053   6.14000034  51.04000092
H    23.88000107   5.92999983  51.38000107
H    22.93999863   4.05999994  55.22999573
H    14.70000076   3.07999992  55.27999878
H    25.72999954   5.65000010  53.20000076
H    25.46999931   3.96000004  53.08000183
