96

S    17.02000046   8.89000034  58.89999771
C    19.72999954   8.78999996  58.11000061
C    18.39999962   8.53999996  57.84000015
C    17.98999977   7.92999983  56.60999680
C    18.96000099   7.69000006  55.65000153
C    20.29000092   8.14000034  55.83000183
C    21.32999802   7.75000000  54.93999863
C    22.65000153   8.06999969  55.13000107
C    23.01000214   8.84000015  56.26999664
C    22.06999969   9.10000038  57.23999786
C    20.69999886   8.71000004  57.08000183
C    16.54999924   7.75000000  56.60999680
C    15.84000015   8.30000019  57.70999908
C    14.46000004   8.47999954  57.76000214
C    24.44999886   9.19999981  56.56999969
H    24.84310722   8.72827053  57.47057724
H    20.12000084   9.19000053  59.03999710
H    18.76000023   7.09999990  54.75999832
H    21.14999962   7.03999996  54.13999939
H    23.44000053   7.77999973  54.43999863
H    22.36000061   9.55999947  58.18000031
H    14.04999924   8.97000027  58.62999725
H    24.94999886   8.80000019  55.68000031
H    24.59000015  10.29000092  56.51000214
S    13.35999966   7.23000002  54.12000275
C    10.65999985   7.23000002  54.77000427
C    11.95000076   7.57000017  55.13000107
C    12.25999928   8.07999992  56.43000031
C    11.21999931   8.32999992  57.29999924
C     9.88000011   8.01999950  56.95999908
C     8.80000019   8.10999966  57.88999939
C     7.53000021   7.64999962  57.61000061
C     7.30999994   7.02000046  56.36000061
C     8.27999973   6.96000004  55.38999939
C     9.59999943   7.40000010  55.70000076
C    13.69999981   8.10999966  56.63999939
C    14.37999916   7.51999950  55.54000092
C    15.73999977   7.26000023  55.58000183
C     5.97000027   6.44999981  55.96000290
H     5.48814344   7.11609554  55.24430084
H    10.54999924   6.76999998  53.79000092
H    11.52999973   8.57999992  58.30999756
H     8.94999981   8.34000015  58.94000244
H     6.71000004   7.60999966  58.33000183
H     8.00000000   6.56000042  54.41999817
H    16.22999954   7.02000046  54.64000320
H     5.36000013   6.28999996  56.86000061
H     6.12999964   5.40999985  55.63999939
S    13.68999958   5.22000027  51.25999832
C    11.07999992   4.39000034  51.86999893
C    12.41000080   4.40000010  52.18999863
C    12.81000042   3.86999989  53.46000290
C    11.82999992   3.38999987  54.31999969
C    10.44000053   3.42999983  54.03999710
C     9.44000053   2.94000006  54.92000198
C     8.11999989   2.94000006  54.51000214
C     7.73999977   3.63000011  53.33000183
C     8.67999935   4.15999985  52.47000122
C    10.06000042   4.05999994  52.80000305
C    14.25000000   4.00000000  53.60000229
C    14.84000015   4.67000008  52.50000000
C    16.20000076   4.90000010  52.36999893
C     6.26999950   3.89999986  53.13000107
H     5.98560905   3.55873132  52.13463211
H    10.72999954   4.76999998  50.90999985
H    12.09000015   2.91000009  55.26000214
H     9.63999939   2.50000000  55.89000320
H     7.34000015   2.52999997  55.13999939
H     8.50000000   4.67000008  51.52999878
H    16.64999962   5.55999994  51.63999939
H     5.75000000   3.42999983  53.96999741
H     6.17000008   4.99000025  53.16999817
S    17.69000053   3.42000008  55.72000122
C    20.31999969   3.84999990  54.81999969
C    18.96999931   4.07000017  54.66999817
C    18.39999962   4.71000004  53.52000427
C    19.26000023   5.29999971  52.62000275
C    20.65999985   5.10999966  52.71999741
C    21.61000061   5.71000004  51.84000015
C    22.95000076   5.47999954  52.02000046
C    23.46999931   4.88999987  53.20000076
C    22.59000015   4.26000023  54.06000137
C    21.18999863   4.34999990  53.81999969
C    16.95000076   4.55000019  53.50000000
C    16.38000107   3.93000007  54.64000320
C    15.03999901   3.55999994  54.66999817
C    24.93000031   4.53999996  53.31999969
H    25.37034798   4.91642570  54.24330902
H    20.66999817   3.38000011  55.73999786
H    18.78999901   5.75999975  51.76000214
H    21.18999863   6.26999950  51.00000000
H    23.68000031   5.82000017  51.29000092
H    23.02999878   3.76999998  54.92000198
H    14.55999947   3.09999990  55.52999878
H    25.48000145   4.92000008  52.44999695
H    25.03000069   3.45000005  53.22999954
