96

S    17.13999939   8.38999939  58.88000107
C    19.84000015   8.69000053  58.11000061
C    18.55999947   8.30000019  57.81000137
C    18.22000122   7.92000008  56.46999741
C    19.23999977   7.88000011  55.54000092
C    20.59999847   8.10000038  55.89000320
C    21.63999939   7.86000013  54.94999695
C    22.93999863   8.15999985  55.31000137
C    23.28000069   8.71999931  56.56999969
C    22.27999878   8.93000031  57.49000168
C    20.93000031   8.59000015  57.19999695
C    16.77999878   7.77999973  56.31000137
C    16.07999992   8.03999996  57.50000000
C    14.68999958   8.15999985  57.57999802
C    24.70999908   9.13999939  56.84000015
H    25.19010735   8.42342186  57.50641632
H    20.02000046   9.04999924  59.12000275
H    19.04999924   7.49000025  54.54000092
H    21.38999939   7.30999994  54.05000305
H    23.75999832   7.88000011  54.65999985
H    22.52000046   9.39999962  58.43999863
H    14.21000004   8.43999958  58.50999832
H    25.28000069   9.19999981  55.90000153
H    24.70000076  10.15999985  57.25999832
S    13.48000050   7.36000013  53.89999771
C    10.80000019   7.36000013  54.56999969
C    12.09000015   7.57000017  54.98000336
C    12.46000099   7.82000017  56.33999634
C    11.47999954   7.92000008  57.30999756
C    10.13000011   7.81000042  56.90999985
C     9.07999992   7.86999989  57.87000275
C     7.76999998   7.83999968  57.43999863
C     7.42000008   7.44999981  56.11999893
C     8.42000008   7.26000023  55.19000244
C     9.77999973   7.49000025  55.54999924
C    13.90999985   7.90999985  56.44000244
C    14.60999966   7.63000011  55.24000168
C    16.00000000   7.50000000  55.18000031
C     6.02999973   6.90999985  55.90999985
H     5.47240448   7.46044731  55.15224457
H    10.54999924   6.93000031  53.60000229
H    11.64000034   8.05000019  58.36999893
H     9.32999992   7.96000004  58.92000198
H     6.98000002   7.78999996  58.18000031
H     8.23999977   7.02000046  54.13999939
H    16.52000046   7.31999969  54.25000000
H     5.51999998   7.03999996  56.88000107
H     5.98000002   5.84999990  55.63000107
S    17.31999969   9.18000031  52.68000031
C    20.06999969   9.18000031  52.02999878
C    18.76000023   8.96000004  51.65999985
C    18.37000084   8.47000027  50.37000275
C    19.38999939   8.39999962  49.43999863
C    20.75000000   8.64000034  49.75000000
C    21.75000000   8.64000034  48.74000168
C    23.02000046   9.03999996  49.09999847
C    23.39999962   9.46000004  50.40000153
C    22.46000099   9.35999966  51.40999603
C    21.11000061   9.02999973  51.09000397
C    16.92000008   8.39999962  50.21999741
C    16.18999863   8.82999992  51.35000229
C    14.80000019   8.90999985  51.32999802
C    24.77999878   9.88000011  50.81999969
H    25.18530846   9.39647388  51.70883560
H    20.30999947   9.63000011  52.98999786
H    19.13999939   8.18000031  48.40999985
H    21.47999954   8.43999958  47.70999908
H    23.77000046   8.97999954  48.30999756
H    22.70999908   9.68000031  52.42000198
H    14.19999981   9.19999981  52.18999863
H    25.48999977   9.72000027  50.00000000
H    24.72999954  10.97000027  50.98999786
S    13.80000019   7.75000000  47.64999771
C    11.10000038   7.73999977  48.39000320
C    12.39999962   8.09000015  48.68000031
C    12.69000053   8.64000034  49.97000122
C    11.65999985   8.78999996  50.87999725
C    10.32999992   8.39999962  50.61999893
C     9.28999996   8.47999954  51.59999847
C     8.01999950   8.05999947  51.29000092
C     7.64999962   7.82999992  49.93999863
C     8.67000008   7.59000015  49.03999710
C    10.03999901   7.82000017  49.34000015
C    14.14000034   8.73999977  50.11000061
C    14.85999966   8.30999947  48.96999741
C    16.23999977   8.15999985  49.02000046
C     6.21999979   7.42999983  49.64000320
H     5.72126532   8.02848148  48.87764740
H    10.90000057   7.37999964  47.38999939
H    11.90000057   9.22000027  51.84999847
H     9.55000019   8.93999958  52.55000305
H     7.25000000   7.96999979  52.04999924
H     8.45000076   7.30999994  48.02000046
H    16.69999886   7.90000010  48.08000183
H     5.75999975   7.62000036  50.61999893
H     6.24000025   6.37000036  49.34000015
