96

S    17.05000114   8.85000038  58.68999863
C    19.69000053   9.04999924  57.84999847
C    18.42000008   8.56999969  57.61000061
C    18.00000000   8.03999996  56.35000229
C    19.02000046   7.82999992  55.44000244
C    20.36999893   8.19999981  55.63999939
C    21.44000053   8.02999973  54.71000290
C    22.73999977   8.40999985  54.95999908
C    23.08000183   9.02000046  56.18999863
C    22.09000015   9.07999992  57.14000320
C    20.72000122   8.76000023  56.91999817
C    16.54999924   8.00000000  56.23000336
C    15.88999939   8.38000011  57.43000031
C    14.51000023   8.55000019  57.50000000
C    24.50000000   9.39999962  56.52000046
H    24.87756538   8.75172710  57.31075287
H    19.78999901   9.59999943  58.77999878
H    18.71000099   7.32999992  54.52000046
H    21.18000031   7.53000021  53.77999878
H    23.54000092   8.31999969  54.22999954
H    22.22999954   9.48999977  58.13999939
H    13.94999981   8.92000008  58.34999847
H    25.15000153   9.39999962  55.63000107
H    24.48999786  10.44000053  56.88000107
S    13.27000046   7.44999981  53.88999939
C    10.62000084   7.30000019  54.61999893
C    11.90000057   7.60999966  55.00999832
C    12.28000069   8.17000008  56.26999664
C    11.25000000   8.38999939  57.16999817
C     9.90999985   8.07999992  56.86000061
C     8.88000011   8.19999981  57.83000183
C     7.57000017   7.85000038  57.57999802
C     7.23999977   7.44000006  56.26999664
C     8.21000004   7.26999998  55.31000137
C     9.59000015   7.55999994  55.54999924
C    13.73000050   8.23999977  56.38000107
C    14.40000057   7.88999987  55.18000031
C    15.77000046   7.67000008  55.11000061
C     5.82000017   6.98000002  56.00999832
H     5.22920942   7.69179583  55.43344498
H    10.53999996   6.85999966  53.62999725
H    11.59999943   8.64999962  58.16999817
H     9.11000061   8.63000011  58.80000305
H     6.84999990   7.68000031  58.37999725
H     8.09000015   6.65999985  54.41999817
H    16.17000008   7.17999983  54.22999954
H     5.26000023   6.80000019  56.93000031
H     5.86999989   5.97000027  55.56999969
S    13.94000053   5.31000042  50.96000290
C    11.23999977   4.85000038  51.58000183
C    12.56000042   4.73000002  51.91999817
C    13.02999973   4.07000017  53.09999847
C    12.10000038   3.53999996  53.97999573
C    10.72999954   3.65999985  53.64999771
C     9.72999954   3.01999998  54.43999863
C     8.38999939   3.16000009  54.20000076
C     7.92000008   3.91000009  53.09999847
C     8.85999966   4.42999983  52.23999786
C    10.26000023   4.32000017  52.45999908
C    14.45000076   4.21999979  53.37999725
C    15.05000019   4.86000013  52.27000427
C    16.38000107   5.26000023  52.22000122
C     6.47000027   4.34999990  53.02999878
H     6.07841206   4.08656788  52.04747009
H    10.88999939   5.27999973  50.65000153
H    12.30999947   2.84000015  54.78000259
H    10.01000023   2.53999996  55.38000107
H     7.69000006   2.75999999  54.93999863
H     8.56999969   5.03999996  51.38000107
H    16.87999916   5.71000004  51.36000061
H     5.88999987   3.77999997  53.75999832
H     6.32999992   5.38999987  53.36999893
S    17.86999893   3.68999982  55.56000137
C    20.48999977   4.17000008  54.75999832
C    19.14999962   4.35999966  54.52999878
C    18.63999939   4.94999981  53.33000183
C    19.55000114   5.40999985  52.37999725
C    20.93000031   5.26999998  52.63000107
C    21.87999916   5.84999990  51.73999786
C    23.22999954   5.80999947  51.98999786
C    23.68999863   5.13999987  53.15000153
C    22.82999992   4.50000000  54.01000214
C    21.42999840   4.51999998  53.75999832
C    17.19000053   4.90999985  53.30999756
C    16.63999939   4.17000008  54.38999939
C    15.29000092   3.84999990  54.43999863
C    25.17999840   5.17000008  53.41999817
H    25.47281075   5.18428373  54.46983337
H    20.82999992   3.76999998  55.72000122
H    19.17000008   5.82000017  51.45000076
H    21.35000038   6.38000011  50.94999695
H    23.95000076   6.39999962  51.43000031
H    23.16999817   3.86000013  54.81999969
H    14.88999939   3.26999998  55.27000046
H    25.62000084   5.97000027  52.81999969
H    25.59999847   4.26999998  52.94000244
