96

S    17.04000092   8.07999992  58.81999969
C    19.69000053   8.34000015  58.13000107
C    18.44000053   7.90999985  57.74000168
C    18.07999992   7.55000019  56.39999771
C    19.05999947   7.53999996  55.43000031
C    20.36999893   7.96000004  55.76000214
C    21.42999840   7.90000010  54.80999756
C    22.63000107   8.46000004  55.19000244
C    22.98999977   8.71999931  56.53999710
C    22.04000092   8.52000046  57.50999832
C    20.69000053   8.27999973  57.12999725
C    16.63999939   7.44999981  56.24000168
C    15.95999908   7.73000002  57.45999908
C    14.57999992   7.88999987  57.51999664
C    24.38999939   9.13999939  56.91999817
H    24.82530022   8.41925621  57.61219788
H    19.93000031   8.71999931  59.12000275
H    18.86999893   7.09999990  54.45999908
H    21.35999870   7.46999979  53.81999969
H    23.45000076   8.47000027  54.47000122
H    22.15999985   8.80000019  58.55999756
H    14.19000053   8.19999981  58.47999954
H    25.00999832   9.26999950  56.02000427
H    24.33000183  10.10000038  57.45999908
S    13.50999928   6.97000027  53.75000000
C    10.77999973   6.88000011  54.47000122
C    12.09000015   7.11000013  54.80999756
C    12.44999981   7.53000021  56.12999725
C    11.44999981   7.85000038  57.02999878
C    10.11000061   7.53000021  56.72000122
C     9.11999989   7.63000011  57.74000168
C     7.77999973   7.46000004  57.45999908
C     7.44999981   6.74000025  56.27999878
C     8.40999985   6.48999977  55.33000183
C     9.75000000   6.96000004  55.45000076
C    13.89000034   7.57000017  56.35000229
C    14.56999969   7.22000027  55.15999603
C    15.95999908   7.21000004  55.04000092
C     6.02999973   6.24000025  56.13999939
H     5.53187084   6.80217457  55.35010910
H    10.54999924   6.43000031  53.50999832
H    11.72000027   8.23000050  58.01000214
H     9.46000004   8.05999947  58.68000031
H     7.07000017   7.69999981  58.25000000
H     8.30999947   6.28999996  54.27000046
H    16.47999954   7.14999962  54.09000015
H     5.47999954   6.24000025  57.09000015
H     5.96000004   5.19000006  55.80999756
S    13.64999962   4.97000027  50.68999863
C    10.95000076   4.50000000  51.37000275
C    12.28999996   4.42999983  51.70000076
C    12.58999920   3.65000010  52.85999680
C    11.71000004   3.10999990  53.77999878
C    10.34000015   3.32999992  53.50000000
C     9.35000038   2.84000015  54.40000153
C     8.02999973   3.00999999  54.05000305
C     7.67000008   3.81999993  52.94000244
C     8.60000038   4.21999979  52.01000214
C     9.98000050   3.98000002  52.27000427
C    14.02999973   3.78999996  53.08000183
C    14.70000076   4.46999979  52.02999878
C    16.03999901   4.84000015  52.04000092
C     6.23000050   4.18000031  52.62000275
H     5.75367594   3.56148958  51.85930634
H    10.59000015   4.97000027  50.45999908
H    11.90999985   2.31999993  54.50000000
H     9.68000031   2.22000003  55.22999573
H     7.31999969   2.44000006  54.64000320
H     8.30000019   4.67000008  51.06999969
H    16.48999977   5.50000000  51.31000137
H     5.59999990   4.26000023  53.50999832
H     6.28999996   5.23000002  52.34000397
S    17.38999939   3.03999996  55.28999710
C    20.10999870   3.68000007  54.75000000
C    18.77000046   3.72000003  54.40999985
C    18.29000092   4.46000004  53.27999878
C    19.14999962   5.12000036  52.42000198
C    20.52000046   4.92000008  52.69000244
C    21.44000053   5.71000004  51.93999863
C    22.77000046   5.77000046  52.28000259
C    23.29999924   5.03999996  53.37999725
C    22.42000198   4.40000010  54.22000122
C    21.02999878   4.33999968  53.90999603
C    16.86000061   4.33999968  53.06000137
C    16.21000099   3.63999987  54.10999680
C    14.85999966   3.33999991  54.10999680
C    24.77999878   4.76000023  53.41999817
H    25.27155685   5.00934076  54.36037064
H    20.35000038   3.22000003  55.70999908
H    18.89000130   5.63000011  51.49000168
H    21.02000046   6.19000006  51.05999756
H    23.44000053   6.19999981  51.53999710
H    22.79999924   3.78999996  55.02999878
H    14.40999985   2.71000004  54.87999725
H    25.28000069   5.29999971  52.60000229
H    25.06999969   3.72000003  53.20999908
