96

S    17.27000046   8.39999962  58.57999802
C    19.93999863   8.65999985  57.67000198
C    18.64999962   8.23999977  57.47000122
C    18.26000023   7.79999971  56.17000198
C    19.22999954   7.55000019  55.21999741
C    20.55999947   8.02999973  55.35999680
C    21.61000061   7.97999954  54.40999985
C    22.90999985   8.30999947  54.71000290
C    23.26000023   8.86999989  55.97000122
C    22.26000023   8.97999954  56.90000153
C    20.92000008   8.56999969  56.65000153
C    16.80999947   7.63000011  56.07999802
C    16.13999939   7.92999983  57.29000092
C    14.75000000   8.01000023  57.34000397
C    24.70000076   9.19999981  56.31000137
H    25.12796402   8.71497536  57.18732452
H    20.17999840   9.19999981  58.59000397
H    18.97999954   7.14999962  54.23999786
H    21.47999954   7.48000050  53.44999695
H    23.75000000   7.94000053  54.13000107
H    22.44999886   9.40999985  57.88000107
H    14.29999924   8.31999969  58.27999878
H    25.36000061   9.04999924  55.45000076
H    24.69000053  10.29000092  56.45999908
S    13.55999947   6.80000019  53.80000305
C    10.85000038   6.63000011  54.59000015
C    12.15000057   7.02000046  54.85000229
C    12.51999950   7.57000017  56.11999893
C    11.56000042   7.69000006  57.09999847
C    10.21999931   7.26999998  56.88999939
C     9.19000053   7.44000006  57.84999847
C     7.88000011   7.22000027  57.48000336
C     7.50000000   6.56000042  56.29000092
C     8.51000023   6.38000011  55.35999680
C     9.85999966   6.74000025  55.59999847
C    13.96000004   7.75000000  56.20999908
C    14.67000008   7.49000025  55.00999832
C    16.04999924   7.40999985  54.93000031
C     6.05000019   6.21999979  56.04999924
H     5.64372206   6.71180964  55.16616440
H    10.67999935   6.37000036  53.54999924
H    11.96000004   8.09000015  58.02999878
H     9.48999977   7.92999983  58.77999878
H     7.09999990   7.67000008  58.08000183
H     8.19000053   6.09000015  54.36000061
H    16.56999969   7.14999962  54.01000214
H     5.52999973   6.34000015  57.01000214
H     6.09000015   5.14999962  55.80999756
S    17.35000038   9.18000031  52.68000031
C    20.07999802   9.27999973  52.01000214
C    18.79999924   8.84000015  51.72999954
C    18.46999931   8.18000031  50.50000000
C    19.47999954   7.92999983  49.58000183
C    20.79999924   8.36999989  49.79999924
C    21.87999916   8.18000031  48.88999939
C    23.15999985   8.60999966  49.12000275
C    23.42000008   9.39000034  50.27999878
C    22.39999962   9.59999943  51.18000031
C    21.07000160   9.11999989  51.00999832
C    17.04000092   8.13000011  50.24000168
C    16.31999969   8.69000053  51.32999802
C    14.94999981   8.96000004  51.33999634
C    24.79000092   9.89999962  50.65999985
H    25.31578827   9.21079159  51.32078934
H    20.31999969   9.75000000  52.95999908
H    19.25000000   7.40000010  48.66000366
H    21.63000107   7.57000017  48.02999878
H    24.01000023   8.31999969  48.50999832
H    22.63999939  10.11999989  52.09999847
H    14.51000023   9.28999996  52.27000427
H    25.40999985  10.18000031  49.79999924
H    24.65999985  10.88000107  51.13999939
S    13.76000023   7.59999990  47.80000305
C    11.13000011   7.57000017  48.53000259
C    12.39999962   8.00000000  48.86000061
C    12.76999950   8.39999962  50.18000031
C    11.77999973   8.47999954  51.13999939
C    10.44999981   8.10000038  50.83000183
C     9.39000034   8.23999977  51.77000046
C     8.09000015   7.86999989  51.49000168
C     7.77999973   7.37999964  50.20000076
C     8.76000023   7.27999973  49.23999786
C    10.13000011   7.57000017  49.52999878
C    14.22000027   8.55000019  50.21999741
C    14.89999962   7.96000004  49.12000275
C    16.28000069   7.77999973  49.12000275
C     6.34000015   7.09000015  49.82999802
H     5.89218855   7.69419050  49.04100037
H    10.92000008   7.26000023  47.50999832
H    11.98999977   8.78999996  52.15999985
H     9.63000011   8.56999969  52.77999878
H     7.36000013   8.01000023  52.29000092
H     8.50000000   7.00000000  48.22999954
H    16.72000122   7.42000008  48.18999863
H     5.66999960   6.98999977  50.68999863
H     6.30000019   6.03999996  49.51000214
