96

S    16.87000084   8.46000004  58.79000092
C    19.61000061   8.47999954  58.06999969
C    18.29000092   8.27000046  57.75000000
C    17.87999916   7.90999985  56.43000031
C    18.89999962   7.90999985  55.50000000
C    20.29000092   8.06999969  55.75000000
C    21.35999870   7.72000027  54.87999725
C    22.67999840   7.78999996  55.25000000
C    23.02000046   8.27000046  56.53999710
C    22.01999855   8.57999992  57.42000198
C    20.63999939   8.38999939  57.09999847
C    16.44000053   7.79999971  56.26999664
C    15.75000000   8.21000004  57.43999863
C    14.35999966   8.27000046  57.50999832
C    24.46000099   8.60999966  56.88000107
H    24.97250366   7.95513439  57.58469391
H    19.82999992   8.85000038  59.06999969
H    18.60000038   7.50000000  54.54000092
H    21.15999985   7.36000013  53.87000275
H    23.39999962   7.36999989  54.54999924
H    22.21999931   9.11999989  58.34999847
H    13.96999931   8.60000038  58.47000122
H    25.00999832   8.75000000  55.93999863
H    24.47999954   9.53999996  57.47000122
S    13.23999977   7.09999990  53.80000305
C    10.57999992   7.07000017  54.54000092
C    11.87999916   7.35000038  54.89999771
C    12.22000027   7.76999998  56.23000336
C    11.25000000   7.90999985  57.19999695
C     9.90999985   7.57999992  56.88000107
C     8.84000015   7.65999985  57.81000137
C     7.55999994   7.32999992  57.43000031
C     7.23999977   6.90999985  56.11000061
C     8.26000023   6.80999994  55.18000031
C     9.59000015   7.13000011  55.54999924
C    13.66000080   7.97999954  56.32999802
C    14.30999947   7.53000021  55.14999771
C    15.69000053   7.40000010  55.14999771
C     5.86999989   6.30999994  55.86000061
H     5.39456367   6.91316509  55.08653259
H    10.42000008   6.58999968  53.57999802
H    11.44999981   8.36000061  58.16999817
H     9.02999973   8.01000023  58.82999802
H     6.78999996   7.44999981  58.18000031
H     8.17000008   6.44999981  54.15999985
H    16.25000000   7.03000021  54.29000092
H     5.47999954   6.40999985  56.86999893
H     5.88000011   5.26999998  55.51000214
S    17.39999962   9.25000000  52.75000000
C    20.12000084   9.25000000  52.16999817
C    18.85000038   8.89999962  51.77999878
C    18.50000000   8.36999989  50.50000000
C    19.52000046   8.18000031  49.59000015
C    20.86999893   8.38000011  49.98000336
C    21.97000122   8.26000023  49.08000183
C    23.23999786   8.46000004  49.55999756
C    23.54000092   8.76999950  50.91999817
C    22.50000000   8.96000004  51.79999924
C    21.17000198   8.84000015  51.31000137
C    17.05999947   8.28999996  50.30000305
C    16.34000015   8.60999966  51.47999573
C    14.96000099   8.73999977  51.52999878
C    24.96999931   9.11999989  51.23000336
H    25.36915779   8.63530636  52.12098312
H    20.39999962   9.73999977  53.09999847
H    19.37000084   8.00000000  48.53000259
H    21.76000214   8.11999989  48.02999878
H    24.02000046   8.65999985  48.82999802
H    22.56999969   9.28999996  52.84000015
H    14.50000000   9.06000042  52.45999908
H    25.53999901   8.85999966  50.31999969
H    24.94999886  10.21000004  51.33999634
S    13.96000004   7.36000013  47.95000076
C    11.18999958   7.37999964  48.50999832
C    12.48000050   7.68000031  48.88000107
C    12.81999969   8.23000050  50.15999603
C    11.78999996   8.53999996  51.03000259
C    10.46000004   8.14999962  50.75000000
C     9.44999981   8.30000019  51.75000000
C     8.14000034   8.14000034  51.37000275
C     7.82000017   7.65999985  50.06999969
C     8.78000069   7.46999979  49.10999680
C    10.14999962   7.69000006  49.41999817
C    14.25000000   8.38999939  50.37000275
C    15.00000000   8.03999996  49.22000122
C    16.38000107   7.95000029  49.13000107
C     6.38999987   7.35000038  49.68999863
H     6.00634098   7.96101236  48.87294769
H    10.98000050   7.00999975  47.50999832
H    12.05000019   8.89999962  52.02000046
H     9.76000023   8.76999950  52.68000031
H     7.32999992   8.26000023  52.08000183
H     8.56000042   7.03000021  48.13999939
H    16.84000015   7.57000017  48.22000122
H     5.73000002   7.40999985  50.56999969
H     6.40999985   6.32000017  49.31000137
