96

S    17.10000038   8.26000023  58.66000366
C    19.78000069   8.56000042  58.09000015
C    18.54999924   8.17000008  57.63000107
C    18.25000000   7.81000042  56.27999878
C    19.31999969   7.67000008  55.41999817
C    20.63999939   7.83999968  55.91999817
C    21.67000008   7.90999985  54.94999695
C    22.95999908   8.21000004  55.31999969
C    23.23999786   8.69999981  56.62000275
C    22.21999931   8.82999992  57.52999878
C    20.88999939   8.40999985  57.22000122
C    16.81999969   7.59000015  56.11000061
C    16.05999947   7.85000038  57.27000427
C    14.68999958   8.06999969  57.29999924
C    24.63000107   9.19999981  56.93999863
H    25.14824295   8.51137733  57.60732651
H    19.85999870   9.06999969  59.03999710
H    19.09000015   7.57999992  54.36999893
H    21.48999977   7.50000000  53.95999908
H    23.72999954   7.81000042  54.66999817
H    22.36999893   9.28999996  58.50999832
H    14.14999962   8.52000046  58.13000107
H    25.10999870   9.22999954  55.96000290
H    24.44000053  10.19999981  57.35000229
S    13.60000038   7.17000008  53.63999939
C    10.85000038   6.93000031  54.29999924
C    12.13999939   7.26999998  54.64000320
C    12.56000042   7.60999966  55.97000122
C    11.52999973   7.81000042  56.86999893
C    10.17000008   7.53999996  56.58000183
C     9.15000057   7.76000023  57.55000305
C     7.83999968   7.42999983  57.29000092
C     7.49000025   6.84000015  56.04999924
C     8.46000004   6.75000000  55.06999969
C     9.81999969   7.13000011  55.25000000
C    14.00000000   7.71000004  56.13999939
C    14.75000000   7.42000008  54.97000122
C    16.13000107   7.30000019  54.92000198
C     6.07999992   6.43000031  55.70000076
H     5.67364407   7.08587313  54.93006134
H    10.57999992   6.56000042  53.30999756
H    11.80999947   8.22000027  57.84000015
H     9.23999977   8.13000011  58.56999969
H     7.05999947   7.77999973  57.95999908
H     8.28999996   6.15000010  54.19000244
H    16.67000008   7.07000017  54.00000000
H     5.65000010   6.46000004  56.70999908
H     6.21999979   5.36999989  55.44000244
S    17.65999985   9.01000023  52.58999634
C    20.39999962   9.13999939  52.04999924
C    19.11999893   8.85000038  51.60999680
C    18.78000069   8.46000004  50.27999878
C    19.82999992   8.22000027  49.40999985
C    21.18000031   8.38999939  49.79000092
C    22.29999924   8.14999962  48.93000031
C    23.61000061   8.34999943  49.29999924
C    23.82999802   8.89000034  50.59999847
C    22.79000092   9.09000015  51.47999573
C    21.44000053   8.84000015  51.12999725
C    17.34000015   8.51000023  50.02999878
C    16.59000015   8.85000038  51.18000031
C    15.19999981   8.86999989  51.24000168
C    25.23999977   9.30999947  50.93000031
H    25.66526794   8.63665962  51.67421722
H    20.62000084   9.72000027  52.94000244
H    19.68000031   7.95000029  48.36999893
H    21.90999985   7.86999989  47.95999908
H    24.41999817   8.27999973  48.57999802
H    22.93999863   9.56999969  52.43999863
H    14.65000057   9.06999969  52.15999985
H    25.86999893   9.31999969  50.02999878
H    25.25000000  10.36000061  51.24000168
S    14.18000031   7.76000023  47.55000305
C    11.50000000   7.42000008  48.26000214
C    12.76000023   7.85000038  48.61000061
C    13.04999924   8.42000008  49.88999939
C    11.98999977   8.63000011  50.76000214
C    10.67999935   8.22000027  50.43000031
C     9.56999969   8.30999947  51.31999969
C     8.28999996   7.88999987  51.03000259
C     8.05999947   7.26999998  49.78000259
C     9.06999969   7.23999977  48.83999634
C    10.40999985   7.63999987  49.13999939
C    14.47999954   8.56999969  50.06999969
C    15.21999931   8.19999981  48.92000198
C    16.61000061   8.10000038  48.90999603
C     6.70000029   6.71000004  49.41999817
H     6.21538973   7.33714294  48.67170334
H    11.31000042   7.11999989  47.22999954
H    12.18000031   8.92000008  51.79000092
H     9.68999958   8.60999966  52.35000229
H     7.48000050   7.96000004  51.75000000
H     8.96000004   6.84999990  47.84000015
H    17.04000092   7.65999985  48.02000046
H     6.00000000   6.63000011  50.26000214
H     6.80999994   5.68000031  49.05000305
