96

S    16.29999924   8.47999954  58.97999573
C    18.97999954   8.15999985  58.48999786
C    17.70000076   7.86999989  58.08000183
C    17.34000015   7.34000015  56.79000092
C    18.37000084   7.22000027  55.87999725
C    19.68000031   7.60999966  56.22000122
C    20.76000023   7.42000008  55.31000137
C    22.04999924   7.77999973  55.65000153
C    22.34000015   8.30999947  56.93000031
C    21.31999969   8.60999966  57.81000137
C    20.00999832   8.14000034  57.51999664
C    15.90999985   7.40999985  56.53999710
C    15.22999954   7.97999954  57.64999771
C    13.86999989   8.26000023  57.65999603
C    23.77000046   8.69000053  57.22999954
H    24.28772545   8.09426117  57.98176575
H    19.17000008   8.73000050  59.40000153
H    18.07999992   6.80999994  54.91000366
H    20.43000031   7.04999971  54.34999847
H    22.84000015   7.63000011  54.92000198
H    21.51000023   8.94999981  58.81999969
H    13.45000076   8.52000046  58.61999893
H    24.31999969   8.61999989  56.27999878
H    23.75000000   9.70000076  57.67000198
S    12.77999973   7.07999992  54.02000046
C    10.08999920   7.11000013  54.69999695
C    11.38000011   7.42999983  55.06000137
C    11.64999962   7.94000053  56.37000275
C    10.67000008   7.95000029  57.35000229
C     9.35999966   7.51999950  57.02000046
C     8.28999996   7.69000006  57.95000076
C     6.98000002   7.40000010  57.63999939
C     6.76000023   6.76000023  56.38999939
C     7.72000027   6.76000023  55.40000153
C     9.06000042   7.14999962  55.65999985
C    13.09000015   8.05999947  56.51000214
C    13.80000019   7.59999990  55.37000275
C    15.14000034   7.22000027  55.38999939
C     5.32999992   6.37000036  56.06999969
H     4.93726301   6.86984682  55.18455505
H     9.92000008   6.72999954  53.68999863
H    10.86999989   8.22000027  58.37999725
H     8.45000076   8.09000015  58.95000076
H     6.19999981   7.55999994  58.36999893
H     7.46000004   6.54999971  54.36000061
H    15.60999966   6.89000034  54.45999908
H     4.67000008   6.47000027  56.93999863
H     5.32999992   5.29999971  55.84000015
S    17.19000053   8.82000065  52.72999573
C    19.90999985   8.57999992  52.04999924
C    18.57999992   8.47000027  51.69000244
C    18.17000008   8.10000038  50.37000275
C    19.19000053   7.92000008  49.45999908
C    20.55999947   8.15999985  49.75999832
C    21.64999962   8.02999973  48.86000061
C    22.98000145   8.23000050  49.16999817
C    23.31999969   8.65999985  50.47999954
C    22.32000160   8.76999950  51.40999603
C    20.95999908   8.46000004  51.11000061
C    16.72000122   8.06999969  50.21999741
C    16.04999924   8.42000008  51.42000198
C    14.67000008   8.59000015  51.50000000
C    24.77999878   8.85999966  50.81999969
H    25.14388657   8.40335941  51.74041748
H    20.25000000   9.10000038  52.94000244
H    18.90999985   7.72000027  48.43000031
H    21.52000046   7.69000006  47.84000015
H    23.71999931   8.05000019  48.40000153
H    22.53000069   9.11999989  52.42000198
H    14.11999893   8.80000019  52.41000366
H    25.31999969   8.42000008  49.95999908
H    25.07999802   9.89999962  50.63000107
S    13.43999958   7.57999992  47.85999680
C    10.72999954   7.48000050  48.56999969
C    12.02999973   7.72000027  48.93000031
C    12.46000099   8.11999989  50.22999573
C    11.44000053   8.28999996  51.14999771
C    10.06000042   8.10000038  50.89000320
C     8.97999954   8.30000019  51.79000092
C     7.69000006   7.97999954  51.43000031
C     7.37999964   7.46999979  50.13999939
C     8.38999939   7.32999992  49.22000122
C     9.72999954   7.68000031  49.54999924
C    13.89999962   8.30000019  50.35999680
C    14.57999992   8.05000019  49.13999939
C    15.95999908   7.96999979  49.05000305
C     5.97000027   7.04999971  49.79000092
H     5.51706123   7.61617374  48.97612381
H    10.52999973   7.18999958  47.54000092
H    11.79999924   8.56000042  52.14000320
H     9.25000000   8.65999985  52.77999878
H     6.94999981   8.14999962  52.21000290
H     8.14999962   6.93000031  48.23999786
H    16.45000076   7.81000042  48.09000015
H     5.23000002   7.13999987  50.59000015
H     5.92000008   6.01999998  49.43000031
