96

S    16.70999908   8.85999966  58.81000137
C    19.44000053   8.90999985  58.18000031
C    18.15999985   8.55000019  57.84000015
C    17.78000069   8.10999966  56.52999878
C    18.82999992   7.78999996  55.68000031
C    20.15999985   8.14000034  56.00000000
C    21.21000099   7.92999983  55.06000137
C    22.53000069   8.14999962  55.37000275
C    22.86000061   8.67000008  56.65000153
C    21.87999916   8.93999958  57.56999969
C    20.52000046   8.63000011  57.29999924
C    16.34000015   8.09000015  56.32999802
C    15.60999966   8.47999954  57.48000336
C    14.22000027   8.50000000  57.51999664
C    24.27000046   9.15999985  56.86000061
H    24.71808815   8.51276207  57.61392593
H    19.64999962   9.31999969  59.16999817
H    18.53999901   7.49000025  54.68000031
H    20.90999985   7.51999950  54.09000015
H    23.28000069   8.06999969  54.58000183
H    22.14999962   9.46000004  58.48999786
H    13.68000031   8.64000034  58.44999695
H    24.71999931   9.13999939  55.86000061
H    24.15999985  10.18000031  57.25000000
S    13.23999977   7.17000008  53.85000229
C    10.47000027   7.13999987  54.54000092
C    11.78999996   7.42999983  54.84000397
C    12.10999966   7.88999987  56.14999771
C    11.07999992   8.10000038  57.04999924
C     9.72000027   7.81000042  56.77000046
C     8.67999935   8.10999966  57.70000076
C     7.36999989   7.95000029  57.29999924
C     7.03000021   7.36999989  56.04999924
C     8.03999996   7.09999990  55.15999603
C     9.40999985   7.27999973  55.47000122
C    13.52000046   8.17000008  56.35000229
C    14.22999954   7.73999977  55.20000076
C    15.62000084   7.73000002  55.18000031
C     5.65999985   6.84999990  55.66999817
H     5.22669077   7.36144733  54.81048203
H    10.22999954   6.89000034  53.50999832
H    11.31999969   8.46000004  58.04999924
H     9.02000046   8.57999992  58.61999893
H     6.53999996   8.23000050  57.93000031
H     7.82999992   6.70000029  54.16999817
H    16.20000076   7.40000010  54.31999969
H     4.99000025   6.98000002  56.52000046
H     5.75000000   5.77000046  55.52000046
S    13.52000046   5.29999971  51.04000092
C    10.86999989   4.74000025  51.63000107
C    12.18999958   4.61999989  52.00000000
C    12.61000061   3.98999977  53.20999908
C    11.69000053   3.38999987  54.06000137
C    10.31999969   3.61999989  53.79000092
C     9.22999954   3.17999983  54.59000015
C     7.88999987   3.31999993  54.27999878
C     7.59000015   3.88000011  53.01000214
C     8.56999969   4.21000004  52.09999847
C     9.92999935   4.15999985  52.50999832
C    14.04999924   4.01999998  53.39000320
C    14.61999989   4.77999973  52.34000397
C    15.93000031   5.23999977  52.32999802
C     6.15000010   4.26999998  52.77999878
H     5.75600958   3.89750004  51.83442307
H    10.57000065   5.38999987  50.80999756
H    12.01000023   2.84000015  54.93999863
H     9.40999985   2.82000017  55.59999847
H     7.11000013   3.08999991  55.00000000
H     8.23999977   4.65999985  51.17000198
H    16.44000053   5.72000027  51.49000168
H     5.47999954   4.09000015  53.62999725
H     6.17999983   5.36999989  52.75000000
S    17.48999977   3.55999994  55.58000183
C    20.09000015   4.19000006  54.93000031
C    18.76000023   4.35999966  54.62999725
C    18.25000000   5.03000021  53.47000122
C    19.17000008   5.59000015  52.61000061
C    20.55999947   5.44000053  52.84999847
C    21.60000038   5.82999992  51.95000076
C    22.95000076   5.60999966  52.09999847
C    23.34000015   5.03999996  53.34000015
C    22.42000198   4.59000015  54.26000214
C    21.02999878   4.73000002  54.01000214
C    16.80999947   4.81999969  53.33000183
C    16.28000069   4.00000000  54.36000061
C    14.94999981   3.58999991  54.36999893
C    24.82000160   4.84000015  53.56999969
H    25.26030159   5.15957355  54.51451492
H    20.36000061   3.82999992  55.91999817
H    18.84000015   6.05999994  51.69000244
H    21.18000031   6.23000050  51.04000092
H    23.61999893   5.92999983  51.31000137
H    22.72000122   4.02999973  55.13999939
H    14.55000019   2.99000001  55.18000031
H    25.38000107   5.26000023  52.71999741
H    25.00000000   3.75999975  53.47999954
