96

S    17.11000061   8.80000019  58.68999863
C    19.80999947   8.71000004  57.95000076
C    18.48999977   8.47999954  57.62000275
C    18.17000008   7.92999983  56.33999634
C    19.17000008   7.63000011  55.43000031
C    20.48999977   8.05000019  55.68999863
C    21.54999924   7.81000042  54.77000427
C    22.84000015   8.23999977  54.99000168
C    23.12000084   8.97000027  56.17000198
C    22.15999985   9.07999992  57.15000153
C    20.84000015   8.59000015  56.97999954
C    16.72000122   7.82999992  56.24000168
C    16.02000046   8.34999943  57.36000061
C    14.65999985   8.60000038  57.31999969
C    24.54000092   9.38000011  56.51000214
H    25.00157738   8.74089432  57.26272583
H    20.00999832   8.86999989  59.01000214
H    18.90999985   7.02000046  54.56999969
H    21.28999901   7.36999989  53.81000137
H    23.65999985   8.07999992  54.31000137
H    22.46000099   9.47000027  58.11999893
H    14.11000061   8.97999954  58.16999817
H    25.15999985   9.34000015  55.61000061
H    24.41999817  10.39000034  56.90000153
S    13.47000027   7.02000046  53.89999771
C    10.80000019   7.09999990  54.56999969
C    12.07999992   7.49000025  54.88999939
C    12.48000050   7.95000029  56.18000031
C    11.46999931   8.21000004  57.09000015
C    10.11000061   7.92000008  56.81999969
C     9.13000011   7.79999971  57.84000015
C     7.86000013   7.36999989  57.54000092
C     7.46999979   7.14999962  56.18999863
C     8.40999985   7.25000000  55.19000244
C     9.77999973   7.44999981  55.50000000
C    13.93000031   8.07999992  56.24000168
C    14.63000107   7.44000006  55.19000244
C    16.01000023   7.30000019  55.14999771
C     6.03999996   6.72999954  55.93999863
H     5.54048395   7.41505051  55.25495148
H    10.55999947   6.56000042  53.64999771
H    11.64999962   8.60000038  58.09000015
H     9.42000008   8.01000023  58.86000061
H     7.14999962   7.20000029  58.36000061
H     8.27999973   6.93000031  54.15999985
H    16.55999947   6.85999966  54.31999969
H     5.55000019   6.56000042  56.90999985
H     6.15000010   5.75000000  55.45999908
S    17.15999985   8.76000023  52.55000305
C    19.85999870   8.64999962  51.95999908
C    18.56999969   8.36999989  51.55000305
C    18.25000000   7.86000013  50.25000000
C    19.32999992   7.57999992  49.43000031
C    20.65999985   7.92999983  49.75999832
C    21.77000046   7.76000023  48.88999939
C    23.08000183   8.03999996  49.20999908
C    23.31000137   8.78000069  50.40000153
C    22.27999878   8.89999962  51.31000137
C    20.93000031   8.52000046  51.04000092
C    16.79999924   7.82999992  50.10000229
C    16.06999969   8.34999943  51.20999908
C    14.70999908   8.57999992  51.31999969
C    24.69000053   9.28999996  50.72999954
H    25.25318336   8.60562611  51.36447525
H    20.06999969   9.09000015  52.93000031
H    19.18000031   7.37999964  48.36999893
H    21.61000061   7.27999973  47.93000031
H    23.92999840   7.97999954  48.54000092
H    22.46999931   9.35999966  52.27000427
H    14.23999977   8.93999958  52.22999954
H    25.06999969   9.36999989  49.69999695
H    24.70000076  10.34000015  51.05999756
S    13.47000027   7.03000021  47.88000107
C    10.77999973   7.02000046  48.64999771
C    12.10000038   7.23999977  48.99000168
C    12.51999950   7.94000053  50.17000198
C    11.52999973   8.30999947  51.06999969
C    10.15999985   8.09000015  50.80999756
C     9.09000015   8.47999954  51.65999985
C     7.76000023   8.39999962  51.31000137
C     7.42999983   7.82000017  50.05000305
C     8.42000008   7.40000010  49.20000076
C     9.78999996   7.48000050  49.55999756
C    13.96000004   8.14000034  50.21999741
C    14.63000107   7.59999990  49.09000015
C    16.01000023   7.50999975  49.00000000
C     6.00000000   7.46999979  49.71000290
H     5.55141640   8.01114845  48.87691879
H    10.47000027   6.51999998  47.74000168
H    11.76000023   8.85000038  51.97999954
H     9.36999989   8.67999935  52.69000244
H     7.00999975   8.52000046  52.09000015
H     8.18000031   7.02000046  48.20999908
H    16.40999985   7.27999973  48.01000214
H     5.49000025   7.69999981  50.65000153
H     5.92000008   6.38999987  49.55999756
