96

S    16.90999985   8.15999985  59.06000137
C    19.62000084   8.38000011  58.33000183
C    18.34000015   7.96999979  58.04000092
C    18.04000092   7.44999981  56.73999786
C    19.04000092   7.21000004  55.80999756
C    20.36000061   7.63999987  56.07999802
C    21.40000153   7.46000004  55.13000107
C    22.65999985   7.92999983  55.38999939
C    22.92000008   8.67999935  56.56999969
C    21.96000099   8.73999977  57.56000137
C    20.62000084   8.31999969  57.31999969
C    16.60000038   7.31999969  56.56000137
C    15.85999966   7.73999977  57.69000244
C    14.47999954   7.86999989  57.81000137
C    24.34999847   9.06999969  56.84999847
H    24.78427887   8.48621559  57.66160202
H    19.95000076   8.78999996  59.27999878
H    18.94000053   6.54999971  54.94999695
H    21.04999924   7.13999987  54.15000153
H    23.36999893   7.73999977  54.59000015
H    22.06999969   9.02000046  58.60000229
H    14.00000000   7.99000025  58.77999878
H    24.97999954   8.97999954  55.96000290
H    24.30999947  10.13000011  57.14000320
S    13.42000008   6.67000008  54.20000076
C    10.71000004   6.48000002  54.86000061
C    11.95000076   7.00999975  55.13000107
C    12.30999947   7.65999985  56.36000061
C    11.23999977   7.90999985  57.19999695
C     9.94999981   7.39000034  56.97999954
C     8.92000008   7.37999964  57.97000122
C     7.63999987   6.94000006  57.72999573
C     7.27999973   6.38999987  56.46999741
C     8.27999973   6.28999996  55.52999878
C     9.63000011   6.67000008  55.77000046
C    13.73999977   7.65999985  56.63999939
C    14.47999954   7.22000027  55.51000214
C    15.85000038   7.07999992  55.40000153
C     5.82999992   6.09000015  56.18000031
H     5.39647961   6.86465120  55.54748535
H    10.52000046   5.92999983  53.95000076
H    11.51000023   8.25000000  58.18999863
H     9.22000027   8.02999973  58.79000092
H     6.80000019   7.32999992  58.27999878
H     8.14999962   5.84999990  54.54000092
H    16.21000099   6.98000002  54.36999893
H     5.26000023   6.11999989  57.11999893
H     5.84000015   5.07000017  55.77999878
S    14.11999893   4.98000002  51.09000397
C    11.46999931   4.28000021  51.70000076
C    12.81000042   4.13999987  51.95000076
C    13.27000046   3.48000002  53.13999939
C    12.38000011   2.89999986  54.02000046
C    10.98999977   2.92000008  53.75000000
C     9.96999931   2.47000003  54.62999725
C     8.64000034   2.72000027  54.38000107
C     8.21000004   3.50000000  53.27000046
C     9.18000031   3.98999977  52.43000031
C    10.55999947   3.68999982  52.62000275
C    14.70999908   3.61000013  53.29999924
C    15.29000092   4.42000008  52.29999924
C    16.63999939   4.76000023  52.29999924
C     6.75000000   3.82999992  53.09999847
H     6.32374001   3.56003547  52.13380814
H    11.07999992   4.86999989  50.86999893
H    12.68000031   2.25999999  54.86000061
H    10.24000072   2.01999998  55.59000015
H     8.01999950   2.43000007  55.21999741
H     8.96000004   4.69999981  51.63999939
H    16.97999954   5.36000013  51.45999908
H     6.21999979   3.32999992  53.92000198
H     6.65000010   4.92000008  53.18000031
S    18.15000153   3.00000000  55.54999924
C    20.81000137   3.52999973  54.89999771
C    19.47999954   3.65000010  54.56999969
C    18.92000008   4.38000011  53.47999954
C    19.84000015   4.84000015  52.56000137
C    21.21999931   4.90000010  52.88999939
C    22.17000008   5.60999966  52.11000061
C    23.50000000   5.59000015  52.44999695
C    24.02000046   4.80999994  53.50999832
C    23.12000084   4.09999990  54.27000046
C    21.71999931   4.13000011  54.00000000
C    17.46999931   4.35999966  53.34999847
C    16.92000008   3.58999991  54.40999985
C    15.59000015   3.19000006  54.31000137
C    25.43999863   5.15999985  53.90999603
H    25.85280418   4.61196661  54.75696182
H    21.11999893   3.08999991  55.84999847
H    19.55999947   5.46000004  51.70999908
H    21.73000145   6.21000004  51.31000137
H    24.13999939   6.25000000  51.86000061
H    23.42000008   3.61999989  55.20000076
H    15.19999981   2.79999995  55.24000168
H    25.58000183   6.25000000  53.99000168
H    26.05999947   4.86999989  53.04999924
