96

S    16.90999985   8.42000008  58.92000198
C    19.56999969   8.64000034  58.15999985
C    18.27999878   8.30999947  57.80000305
C    17.93000031   7.73999977  56.53999710
C    18.90999985   7.63000011  55.56999969
C    20.25000000   7.92000008  55.90000153
C    21.34000015   7.76000023  55.00000000
C    22.62000084   8.10999966  55.37000275
C    22.95000076   8.59000015  56.66999817
C    21.94999886   8.63000011  57.61000061
C    20.59999847   8.38000011  57.22000122
C    16.47999954   7.63000011  56.45999908
C    15.77000046   8.02999973  57.62000275
C    14.40000057   8.26000023  57.63000107
C    24.27000046   9.22999954  57.04000092
H    24.79551888   8.58375168  57.74306107
H    19.85999870   9.10000038  59.09999847
H    18.71999931   7.28999996  54.55999756
H    21.01000023   7.60999966  53.97999573
H    23.32999992   8.14000034  54.54999924
H    22.00000000   9.06999969  58.60000229
H    13.86999989   8.34000015  58.57999802
H    24.86000061   9.46000004  56.13999939
H    24.03000069  10.06999969  57.70000076
S    13.17999935   7.17999983  54.01000214
C    10.47999954   7.04999971  54.79000092
C    11.79999924   7.27999973  55.12000275
C    12.22000027   7.77999973  56.39999771
C    11.23999977   7.94000053  57.36999893
C     9.89000034   7.62000036  57.09999847
C     8.92000008   7.82000017  58.11999893
C     7.57999992   7.65999985  57.85999680
C     7.21000004   7.36999989  56.52000046
C     8.09000015   7.21000004  55.47999954
C     9.48000050   7.22000027  55.77999878
C    13.66000080   7.90999985  56.49000168
C    14.34000015   7.55000019  55.30000305
C    15.72000027   7.36999989  55.31000137
C     5.78000021   6.88000011  56.43000031
H     5.24007177   7.29205036  55.57748032
H    10.24000072   6.94999981  53.73000336
H    11.49000072   8.22000027  58.39000320
H     9.34000015   8.03999996  59.09999847
H     6.83000040   7.65999985  58.63999939
H     7.77999973   7.04999971  54.45000076
H    16.21999931   7.13000011  54.38000107
H     5.26999998   7.03999996  57.38999939
H     5.82000017   5.79999971  56.26999664
S    13.89000034   5.07999992  51.11000061
C    11.23999977   4.72000027  51.72000122
C    12.53999901   4.44000006  52.06999969
C    12.96000004   3.84999990  53.29999924
C    11.94000053   3.42999983  54.13999939
C    10.59000015   3.72000003  53.85000229
C     9.52000046   3.31999993  54.71000290
C     8.21000004   3.50000000  54.36000061
C     7.83999968   4.13999987  53.13999939
C     8.84000015   4.51000023  52.28000259
C    10.21000004   4.42000008  52.64999771
C    14.37000084   4.15000010  53.53000259
C    15.03999901   4.73000002  52.42000198
C    16.36999893   5.10999966  52.44999695
C     6.40999985   4.59000015  52.95000076
H     5.89848804   4.09269667  52.12589645
H    10.98999977   5.09000015  50.72000122
H    12.30000019   2.86000013  54.99000168
H     9.89000034   2.79999995  55.59000015
H     7.53000021   3.17999983  55.13000107
H     8.60999966   5.05000019  51.36000061
H    16.76000023   5.84000015  51.73999786
H     5.79999971   4.40000010  53.83999634
H     6.34999990   5.66999960  52.75000000
S    17.71999931   3.58000016  55.81999969
C    20.38000107   3.86000013  55.11000061
C    19.06999969   4.09999990  54.79999924
C    18.63000107   4.77999973  53.61000061
C    19.59000015   5.25000000  52.72999573
C    20.95000076   4.97000027  52.97999954
C    21.94999886   5.32999992  52.02999878
C    23.28000069   5.14999962  52.35000229
C    23.67000198   4.67000008  53.61999893
C    22.73999977   4.32000017  54.58000183
C    21.35999870   4.40000010  54.23999786
C    17.18000031   4.71000004  53.52000427
C    16.53000069   4.09000015  54.61000061
C    15.15999985   3.84000015  54.64000320
C    25.13999939   4.38000011  53.86000061
H    25.58212471   4.77933836  54.77277374
H    20.69000053   3.37000012  56.04000092
H    19.29000092   5.88000011  51.88999939
H    21.64999962   5.69000006  51.04999924
H    23.90000153   5.23999977  51.45999908
H    23.11000061   3.77999997  55.45000076
H    14.73999977   3.09999990  55.31999969
H    25.65000153   4.76000023  52.97000122
H    25.23999977   3.30000019  54.02999878
