96

S    16.72999954   8.34999943  58.74000168
C    19.42000008   8.67000008  57.91999817
C    18.13999939   8.23999977  57.65999603
C    17.76000023   7.78999996  56.36000061
C    18.70000076   7.72000027  55.34999847
C    20.03000069   8.11999989  55.59999847
C    21.04999924   7.77999973  54.66999817
C    22.34999847   8.21000004  54.78000259
C    22.72000122   8.71999931  56.04999924
C    21.78999901   8.88000011  57.04999924
C    20.39999962   8.63000011  56.90000153
C    16.31999969   7.59000015  56.19999695
C    15.65000057   7.92000008  57.39999771
C    14.27000046   7.99000025  57.51999664
C    24.13999939   9.06000042  56.45000076
H    24.62210274   8.36520672  57.13770676
H    19.63000107   9.09000015  58.89999771
H    18.52000046   7.11999989  54.45999908
H    20.75000000   7.39000034  53.69999695
H    23.13999939   8.01999950  54.03999710
H    22.17000008   9.23999977  58.00000000
H    13.71000099   8.31999969  58.40000153
H    24.79999924   9.13999939  55.56999969
H    24.23000145  10.06000042  56.88999939
S    13.03999996   7.35000038  53.83999634
C    10.40999985   6.91999960  54.59999847
C    11.65999985   7.36000013  54.94999695
C    12.02999973   7.68000031  56.30000305
C    11.03000069   7.77999973  57.25000000
C     9.68999958   7.67000008  56.79999924
C     8.61999989   7.95000029  57.69000244
C     7.31999969   7.69000006  57.31999969
C     6.97000027   7.11999989  56.05999756
C     7.97999954   6.93000031  55.14999771
C     9.35000038   7.11999989  55.51000214
C    13.48000050   7.76000023  56.38999939
C    14.19000053   7.53000021  55.18000031
C    15.57000065   7.39000034  55.04000092
C     5.55000019   6.67000008  55.79999924
H     5.09421825   7.24684954  54.99525833
H    10.17000008   6.61000013  53.57999802
H    11.39000034   8.03999996  58.23999786
H     8.84000015   8.30999947  58.68999863
H     6.61000013   7.73000002  58.13999939
H     7.68000031   6.63000011  54.15000153
H    16.14999962   7.11999989  54.15999985
H     4.90000010   6.50000000  56.66999817
H     5.72000027   5.66999960  55.37000275
S    13.66000080   5.32000017  50.90999985
C    11.05000019   4.56999969  51.30000305
C    12.35000038   4.40000010  51.68000031
C    12.79999924   3.77999997  52.90000153
C    11.77999973   3.24000001  53.67000198
C    10.42000008   3.54999995  53.40999985
C     9.44000053   3.19999981  54.38000107
C     8.11999989   3.49000001  54.15000153
C     7.65999985   4.05999994  52.94000244
C     8.61999989   4.44999981  52.04000092
C    10.01999950   4.26000023  52.22000122
C    14.21000004   3.95000005  53.18999863
C    14.75999928   4.77999973  52.18999863
C    16.09000015   5.17000008  52.30999756
C     6.24000025   4.51000023  52.64999771
H     5.74253750   4.04807091  51.79720688
H    10.80000019   5.23999977  50.47000122
H    12.02000046   2.63999987  54.54000092
H     9.75000000   2.76999998  55.33000183
H     7.40999985   3.19000006  54.93000031
H     8.38999939   4.92999983  51.09000397
H    16.56999969   5.86000013  51.62000275
H     5.63000011   4.26999998  53.53000259
H     6.19999981   5.59000015  52.49000168
S    17.43000031   3.48000002  55.61999893
C    20.13000107   3.81999993  54.86000061
C    18.78999901   3.97000027  54.59999847
C    18.35000038   4.59999990  53.39000320
C    19.27999878   5.14999962  52.52999878
C    20.66999817   5.00999975  52.75000000
C    21.61999893   5.68000031  51.93000031
C    22.92000008   5.80999947  52.36000061
C    23.36999893   5.13000011  53.53000259
C    22.49000168   4.28999996  54.15999985
C    21.09000015   4.25000000  53.89999771
C    16.90000153   4.63000011  53.31999969
C    16.26000023   3.86000013  54.33000183
C    14.93999958   3.44000006  54.27000046
C    24.79000092   5.38999987  54.00000000
H    25.14651489   4.74827528  54.80572128
H    20.45000076   3.61999989  55.87999725
H    18.97999954   5.75000000  51.66999817
H    21.18999863   6.19000006  51.06999969
H    23.64999962   6.38000011  51.79000092
H    22.79000092   3.70000005  55.01999664
H    14.45000076   2.84999990  55.04000092
H    24.80999947   6.48000002  54.15000153
H    25.43000031   5.38000011  53.11000061
