96

S    16.87999916   9.02999973  58.67000198
C    19.57999992   9.04999924  57.98999786
C    18.30000114   8.65999985  57.68000031
C    17.97000122   8.14999962  56.38000107
C    19.01000023   7.95000029  55.47999954
C    20.36999893   8.19999981  55.79000092
C    21.47999954   8.00000000  54.93000031
C    22.77000046   8.36999989  55.24000168
C    22.98999977   8.97999954  56.50000000
C    21.97000122   9.17000008  57.39999771
C    20.62999916   8.78000069  57.08000183
C    16.53000069   8.14000034  56.17000198
C    15.82999992   8.43000031  57.36999893
C    14.45000076   8.52999973  57.47000122
C    24.43000031   9.30000019  56.79999924
H    24.88953209   8.69907284  57.58473969
H    19.76000023   9.63999939  58.88999939
H    18.84000015   7.53000021  54.50000000
H    21.21999931   7.63000011  53.94000244
H    23.57999992   8.18000031  54.54000092
H    22.17000008   9.48999977  58.41999817
H    13.86999989   8.67999935  58.37999725
H    25.07999802   9.22999954  55.91999817
H    24.37000084  10.34000015  57.14000320
S    13.22000027   7.32999992  53.86000061
C    10.51000023   7.46000004  54.58000183
C    11.82000065   7.75000000  54.86999893
C    12.25000000   8.27999973  56.12999725
C    11.28999901   8.42000008  57.11999893
C     9.96000004   8.03999996  56.86000061
C     8.97000027   8.09000015  57.88999939
C     7.65999985   7.82999992  57.60000229
C     7.23000002   7.46000004  56.30000305
C     8.14999962   7.27999973  55.28999710
C     9.48999977   7.64999962  55.54999924
C    13.68999958   8.23999977  56.32999802
C    14.34999943   7.88000011  55.12000275
C    15.72999954   7.81000042  55.06999969
C     5.78000021   7.04999971  56.12999725
H     5.44605350   7.31999969  55.12815857
H    10.13000011   7.11000013  53.61999893
H    11.67000008   8.65999985  58.11000061
H     9.23999977   8.30000019  58.92000198
H     6.93000031   7.81000042  58.40999985
H     7.99000025   6.71999979  54.36999893
H    16.28999901   7.53000021  54.18000031
H     5.18000031   7.44000006  56.95999908
H     5.71000004   5.96000004  56.25999832
S    17.60000038   9.27999973  52.75000000
C    20.29000092   9.52000046  52.00000000
C    18.98999977   9.19999981  51.66999817
C    18.64999962   8.78000069  50.34000015
C    19.65999985   8.43000031  49.45999908
C    21.00000000   8.78999996  49.73999786
C    22.09000015   8.48999977  48.87000275
C    23.36999893   8.80999947  49.27000046
C    23.68999863   9.21000004  50.59000015
C    22.65999985   9.48000050  51.45000076
C    21.31000137   9.30000019  51.04999924
C    17.20999908   8.60000038  50.26000214
C    16.48999977   9.06000042  51.38999939
C    15.10000038   9.13999939  51.42000198
C    25.13000107   9.43000031  51.00000000
H    25.53747368   8.71513462  51.71486664
H    20.52999878   9.85999966  53.01000214
H    19.37999916   8.01000023  48.48999786
H    21.87999916   8.25000000  47.83000183
H    24.13999939   8.73999977  48.50999832
H    22.86999893   9.89999962  52.43000031
H    14.55999947   9.38000011  52.34000397
H    25.65000153   9.30000019  50.04000092
H    25.31999969  10.47999954  51.25999832
S    14.02999973   7.90000010  47.78999710
C    11.31000042   7.96000004  48.46000290
C    12.61000061   8.18000031  48.82999802
C    12.92000008   8.69000053  50.13000107
C    11.89000034   8.85999966  51.04000092
C    10.54999924   8.67000008  50.63999939
C     9.46000004   8.76000023  51.55000305
C     8.18000031   8.43000031  51.14999771
C     7.82999992   8.02999973  49.84000397
C     8.86999989   7.88999987  48.94000244
C    10.21000004   8.14999962  49.34000015
C    14.35999966   8.73000050  50.31000137
C    15.06999969   8.23000050  49.19000244
C    16.46000099   8.10000038  49.19000244
C     6.47000027   7.48000050  49.47000122
H     6.02182722   7.96374226  48.60211182
H    11.05000019   7.67000008  47.43999863
H    12.02000046   9.02000046  52.11000061
H     9.71000004   9.13999939  52.54000092
H     7.37999964   8.47000027  51.88999939
H     8.59000015   7.57000017  47.94000244
H    17.01000023   7.79999971  48.29999924
H     5.80999947   7.55000019  50.33000183
H     6.58999968   6.39999962  49.31999969
