96

S    17.13999939   8.90999985  58.68999863
C    19.89999962   8.75000000  58.13999939
C    18.60000038   8.48999977  57.77000046
C    18.26000023   7.92000008  56.50000000
C    19.23999977   7.57999992  55.59000015
C    20.59000015   7.85000038  55.90000153
C    21.61999893   7.51999950  54.97000122
C    22.90999985   7.90000010  55.26000214
C    23.22999954   8.51000023  56.50000000
C    22.26000023   8.76999950  57.43000031
C    20.88999939   8.48999977  57.15000153
C    16.82999992   7.69999981  56.33999634
C    16.09000015   8.30999947  57.39999771
C    14.73999977   8.63000011  57.36000061
C    24.65999985   8.94999981  56.76000214
H    25.13597107   8.28932381  57.48461151
H    20.13000107   9.22000027  59.09000015
H    18.97999954   6.85999966  54.81999969
H    21.38999939   7.11999989  53.99000168
H    23.69999886   7.63999987  54.56999969
H    22.53999901   9.17000008  58.40999985
H    14.26000023   8.93999958  58.27999878
H    25.15999985   8.89999962  55.77999878
H    24.71999931   9.98999977  57.06999969
S    13.67000008   6.90999985  53.95000076
C    10.93999958   7.05999947  54.48999786
C    12.22000027   7.40000010  54.85000229
C    12.57999992   8.05000019  56.06999969
C    11.56999969   8.28999996  56.98999786
C    10.24000072   7.95000029  56.63999939
C     9.17000008   8.21000004  57.54000092
C     7.86999989   7.86999989  57.25000000
C     7.53000021   7.26999998  56.00999832
C     8.52000046   7.04999971  55.07999802
C     9.88000011   7.32999992  55.38999939
C    14.01999950   8.17000008  56.24000168
C    14.75000000   7.55000019  55.20000076
C    16.11999893   7.32999992  55.19000244
C     6.17000008   6.67000008  55.70999908
H     5.74920511   7.19777679  54.85414505
H    10.67000008   6.63000011  53.53000259
H    11.78999996   8.73999977  57.95000076
H     9.32999992   8.71999931  58.48999786
H     7.04999971   8.19999981  57.88999939
H     8.36000061   6.61000013  54.09000015
H    16.69999886   6.86999989  54.38999939
H     5.51999998   6.78999996  56.58000183
H     6.35999966   5.59999990  55.58000183
S    13.82999992   4.72000027  51.04000092
C    11.18999958   4.53000021  51.88000107
C    12.51999950   4.26999998  52.14000320
C    13.02000046   3.75999975  53.37999725
C    12.05000019   3.40999985  54.29999924
C    10.67999935   3.38000011  53.95000076
C     9.70000076   2.94000006  54.87999725
C     8.36000061   2.91000009  54.56999969
C     7.92999983   3.52999973  53.36000061
C     8.80000019   4.11999989  52.48000336
C    10.19999981   4.00999975  52.75000000
C    14.47000027   3.86000013  53.48999786
C    15.01999950   4.46000004  52.32999802
C    16.36000061   4.78999996  52.25000000
C     6.46000004   3.76999998  53.11999893
H     6.09843111   3.52895379  52.12036514
H    10.85999966   5.10999966  51.02000427
H    12.41000080   2.98000002  55.22999573
H     9.89000034   2.57999992  55.87999725
H     7.65999985   2.63000011  55.34999847
H     8.43000031   4.75000000  51.66999817
H    16.76000023   5.31000042  51.38000107
H     5.79999971   3.35000014  53.88999939
H     6.38999987   4.85000038  53.27999878
S    17.80999947   3.40999985  55.68000031
C    20.45999908   3.67000008  54.97000122
C    19.14999962   3.93000007  54.64000320
C    18.68000031   4.55999994  53.44999695
C    19.64999962   4.88000011  52.50999832
C    21.02000046   4.67999983  52.81000137
C    21.97999954   5.31000042  51.97000122
C    23.28000069   5.36999989  52.42000198
C    23.72999954   4.63000011  53.54000092
C    22.82999992   4.07000017  54.40999985
C    21.45000076   4.21000004  54.09999847
C    17.22999954   4.56999969  53.33000183
C    16.64999962   3.88000011  54.43000031
C    15.31000042   3.53999996  54.56999969
C    25.22000122   4.50000000  53.76999664
H    25.52559662   4.74874115  54.78628540
H    20.78000069   3.09999990  55.83000183
H    19.27999878   5.42000008  51.63999939
H    21.63999939   5.84999990  51.09000397
H    23.95000076   5.93999958  51.77999878
H    23.18000031   3.38999987  55.19000244
H    14.91000080   3.05000019  55.45000076
H    25.79000092   5.19000006  53.13000107
H    25.52999878   3.49000001  53.47999954
