96

S    16.46999931   8.27999973  58.79000092
C    19.15999985   8.30000019  58.22999954
C    17.90999985   7.88999987  57.83000183
C    17.52000046   7.46000004  56.52000046
C    18.60000038   7.30999994  55.65999985
C    19.93000031   7.65999985  56.00999832
C    21.02000046   7.55000019  55.10000229
C    22.34000015   7.83999968  55.37000275
C    22.60000038   8.38999939  56.65000153
C    21.56999969   8.63000011  57.52999878
C    20.23999977   8.19999981  57.29999924
C    16.09000015   7.42999983  56.29000092
C    15.39000034   7.88999987  57.43999863
C    14.01999950   8.10999966  57.50000000
C    23.98999977   8.90999985  56.95999908
H    24.48165321   8.39697170  57.78654480
H    19.36000061   8.85999966  59.13999939
H    18.61999893   6.89000034  54.65999985
H    20.76000023   7.26000023  54.09000015
H    23.16999817   7.59999990  54.71000290
H    21.76000214   9.18000031  58.44999695
H    13.45000076   8.36999989  58.37999725
H    24.63000107   8.89000034  56.06999969
H    23.87000084   9.94999981  57.29999924
S    12.97999954   6.98999977  53.77999878
C    10.29999924   6.78999996  54.52000046
C    11.56000042   7.23999977  54.81999969
C    11.90999985   7.73000002  56.11999893
C    10.90999985   7.81000042  57.06999969
C     9.57999992   7.36999989  56.81999969
C     8.57999992   7.49000025  57.81999969
C     7.26999998   7.35000038  57.43000031
C     6.94999981   6.83000040  56.13999939
C     7.92999983   6.50000000  55.24000168
C     9.27999973   6.88000011  55.50000000
C    13.35000038   7.83999968  56.29000092
C    14.04999924   7.40999985  55.13000107
C    15.40999985   7.17000008  55.08999634
C     5.52999973   6.48999977  55.75000000
H     5.11662054   7.02454185  54.89473343
H    10.00000000   6.48000002  53.52000427
H    11.18999958   8.23000050  58.02999878
H     8.82999992   7.77999973  58.83999634
H     6.52999973   7.31999969  58.22999954
H     7.76000023   6.12999964  54.22999954
H    15.98000050   6.83000040  54.22999954
H     5.00999975   6.65999985  56.70999908
H     5.40999985   5.40999985  55.61999893
S    13.21000004   4.90000010  50.87999725
C    10.54999924   4.41000032  51.79000092
C    11.90999985   4.32000017  51.95000076
C    12.36999989   3.79999995  53.20000076
C    11.46999931   3.28000021  54.12000275
C    10.07999992   3.21000004  53.86000061
C     9.19999981   2.56999993  54.78000259
C     7.86000013   2.46000004  54.52000046
C     7.39000034   2.96999979  53.27000046
C     8.21000004   3.65000010  52.41000366
C     9.61999989   3.70000005  52.58999634
C    13.82999992   3.76999998  53.22999954
C    14.40000057   4.38000011  52.09000015
C    15.72999954   4.76999998  52.04000092
C     5.95000029   2.73000002  52.87000275
H     5.58791780   3.39026809  52.08193970
H    10.10000038   5.07000017  51.04999924
H    11.82999992   2.96999979  55.08999634
H     9.48999977   2.29999995  55.79000092
H     7.20000029   1.94000006  55.20999908
H     7.88000011   4.09999990  51.46999741
H    16.10999870   5.38999987  51.23000336
H     5.88999987   1.70000005  52.50000000
H     5.26999998   2.77999997  53.72000122
S    17.18000031   3.35000014  55.47999954
C    19.82999992   4.03999996  54.86000061
C    18.50000000   4.03999996  54.52000046
C    17.97999954   4.65000010  53.33000183
C    18.89999962   5.26999998  52.50999832
C    20.29000092   5.10999966  52.70999908
C    21.31000137   5.47999954  51.79000092
C    22.65999985   5.40999985  52.05999756
C    23.11000061   4.75000000  53.22999954
C    22.18000031   4.38000011  54.16999817
C    20.79000092   4.56999969  53.95000076
C    16.55999947   4.42000008  53.11999893
C    15.98999977   3.74000025  54.22000122
C    14.63000107   3.45000005  54.34000015
C    24.59000015   4.55000019  53.47999954
H    25.05271530   4.99135971  54.36272049
H    20.19000053   3.58000016  55.77999878
H    18.56999969   5.56999969  51.52000046
H    21.02000046   5.86000013  50.80999756
H    23.35000038   5.78000021  51.31000137
H    22.46999931   3.91999984  55.11000061
H    14.30999947   2.94999981  55.24000168
H    25.19000053   4.74000025  52.57999802
H    24.59000015   3.48000002  53.70999908
