96

S    16.57999992   8.19999981  58.68999863
C    19.22999954   8.34000015  57.98999786
C    17.98999977   7.83999968  57.67000198
C    17.64000130   7.17999983  56.45000076
C    18.65999985   7.11000013  55.51000214
C    19.96000099   7.57999992  55.79999924
C    20.98999977   7.46000004  54.81999969
C    22.26000023   7.95000029  55.06000137
C    22.60000038   8.43999958  56.33999634
C    21.63999939   8.55000019  57.31999969
C    20.30999947   8.10999966  57.09000015
C    16.20000076   7.21000004  56.23000336
C    15.51000023   7.73999977  57.35000229
C    14.17000008   8.10999966  57.29999924
C    24.04999924   8.86999989  56.45999908
H    24.53523254   8.22778034  57.19498444
H    19.31999969   9.07999992  58.77999878
H    18.40999985   6.65999985  54.55999756
H    20.81999969   7.13000011  53.80000305
H    22.90999985   7.90999985  54.19000244
H    21.80000114   9.07999992  58.26000214
H    13.61999989   8.36999989  58.20000076
H    24.54999924   8.73999977  55.48999786
H    24.14999962   9.86999989  56.90000153
S    13.05999947   6.98000002  53.63999939
C    10.38000011   6.84000015  54.45999908
C    11.69000053   7.16000032  54.73999786
C    12.05000019   7.72000027  56.00999832
C    11.10000038   7.75000000  57.02000046
C     9.72999954   7.63999987  56.70000076
C     8.65999985   7.92000008  57.60000229
C     7.35000038   7.79999971  57.18999863
C     6.98000002   7.17999983  55.97000122
C     8.00000000   6.90999985  55.08999634
C     9.36999989   7.11999989  55.40999985
C    13.48999977   7.86999989  56.10000229
C    14.18000031   7.44000006  54.93999863
C    15.53999996   7.16000032  54.99000168
C     5.51999998   7.04999971  55.63000107
H     5.26539373   7.44605350  54.64693451
H    10.26000023   6.38000011  53.47999954
H    11.31000042   7.88000011  58.08000183
H     8.93000031   8.27000046  58.59000397
H     6.57999992   8.03999996  57.91999817
H     7.69000006   6.61000013  54.09000015
H    16.11999893   7.00999975  54.09000015
H     4.90999985   7.32999992  56.50000000
H     5.32000017   5.97000027  55.58000183
S    13.71999931   5.01999950  51.00000000
C    11.03000069   4.53000021  51.63000107
C    12.35999966   4.39000034  51.93999863
C    12.82999992   3.76999998  53.13999939
C    11.87000084   3.33999991  54.05000305
C    10.48999977   3.38000011  53.74000168
C     9.46000004   2.93000007  54.61000061
C     8.13000011   2.98000002  54.23999786
C     7.72000027   3.53999996  53.01000214
C     8.67000008   4.15999985  52.22000122
C    10.05000019   4.07999992  52.56000137
C    14.27000046   3.84999990  53.36000061
C    14.85999966   4.53999996  52.27000427
C    16.21999931   4.80999994  52.28000259
C     6.25999975   3.49000001  52.62000275
H     6.05443716   3.47582316  51.54965591
H    10.84000015   5.05999994  50.70000076
H    12.23000050   2.71000004  54.85000229
H     9.80000019   2.56999993  55.58000183
H     7.40000010   2.48000002  54.87999725
H     8.40999985   4.44999981  51.20999908
H    16.57999992   5.51999998  51.52999878
H     5.78999996   2.66999984  53.16999817
H     5.78000021   4.39000034  53.02999878
S    17.46000099   3.28000021  55.76000214
C    20.13999939   3.58000016  55.04000092
C    18.81999969   3.77999997  54.72000122
C    18.45000076   4.38000011  53.47000122
C    19.45000076   4.84000015  52.63000107
C    20.79999924   4.71000004  53.01000214
C    21.80000114   5.32999992  52.21000290
C    23.12000084   5.18000031  52.56000137
C    23.52999878   4.42999983  53.68999863
C    22.57999802   3.88000011  54.52999878
C    21.19999886   4.11999989  54.26000214
C    17.01000023   4.28999996  53.30999756
C    16.36000061   3.70000005  54.43000031
C    14.98999977   3.48000002  54.50000000
C    25.00000000   4.21999979  53.96999741
H    25.29811478   4.48262548  54.98501205
H    20.36999893   2.99000001  55.91999817
H    19.25000000   5.35000038  51.69000244
H    21.45000076   5.82999992  51.31000137
H    23.95000076   5.50000000  51.93999863
H    22.84000015   3.21000004  55.34000015
H    14.51000023   3.03999996  55.37000275
H    25.52999878   4.79999971  53.20999908
H    25.34000015   3.22000003  53.68000031
