96

S    17.28000069   8.45000076  58.83999634
C    19.96000099   8.59000015  58.06000137
C    18.67000008   8.25000000  57.75000000
C    18.25000000   7.78999996  56.45999908
C    19.19999886   7.82000017  55.45000076
C    20.56999969   8.10000038  55.70000076
C    21.61000061   7.96999979  54.73999786
C    22.93000031   8.01999950  55.13999939
C    23.28000069   8.48999977  56.44000244
C    22.29000092   8.76999950  57.35000229
C    20.94000053   8.43000031  57.04999924
C    16.79999924   7.67000008  56.38000107
C    16.13000107   8.15999985  57.51999664
C    14.75000000   8.30999947  57.61000061
C    24.70000076   8.88000011  56.75000000
H    25.16856766   8.17004871  57.43155289
H    20.20999908   9.17000008  58.94000244
H    18.95000076   7.63999987  54.40999985
H    21.38000107   7.51999950  53.77999878
H    23.71999931   7.85000038  54.41999817
H    22.55000114   9.19999981  58.30999756
H    14.21000004   8.67000008  58.48999786
H    25.19000053   8.67999935  55.79000092
H    24.77000046   9.92000008  57.08000183
S    13.60000038   7.07999992  53.97999573
C    10.88000107   7.23000002  54.61999893
C    12.18999958   7.50000000  54.97000122
C    12.60000038   7.88999987  56.27999878
C    11.57999992   8.21000004  57.15999985
C    10.21999931   8.01999950  56.81999969
C     9.30000019   8.10000038  57.90999985
C     8.00000000   7.69000006  57.72999573
C     7.62000036   7.17999983  56.45999908
C     8.47999954   7.05999947  55.38999939
C     9.85000038   7.39000034  55.58000183
C    14.04000092   7.92000008  56.46999741
C    14.70999908   7.44000006  55.31000137
C    16.09000015   7.30000019  55.22999573
C     6.19000006   6.72999954  56.23000336
H     5.62969923   7.27611589  55.47111130
H    10.69000053   6.91999960  53.60000229
H    11.92999935   8.38999939  58.16999817
H     9.59999943   8.38000011  58.92000198
H     7.27999973   7.92999983  58.50000000
H     8.17000008   6.74000025  54.40000153
H    16.63999939   7.03999996  54.31999969
H     5.68000031   6.89000034  57.18999863
H     6.11000013   5.65999985  56.03000259
S    17.48999977   9.06000042  52.67000198
C    20.15000153   9.00000000  52.00000000
C    18.86999893   8.71999931  51.59999847
C    18.45999908   8.23000050  50.31999969
C    19.47000122   8.03999996  49.38999939
C    20.79999924   8.45000076  49.65999985
C    21.86000061   8.19999981  48.75000000
C    23.12999916   8.64999962  49.05000305
C    23.43000031   9.26000023  50.28999710
C    22.47999954   9.26000023  51.27999878
C    21.12999916   8.89999962  50.97999954
C    17.02000046   8.18000031  50.15999603
C    16.39000130   8.71000004  51.31999969
C    15.03000069   8.94999981  51.42000198
C    24.87999916   9.59000015  50.58000183
H    25.32728004   8.88713360  51.28286743
H    20.36999893   9.59000015  52.88999939
H    19.19999886   7.49000025  48.48999786
H    21.75000000   7.75000000  47.76000214
H    23.82999802   8.34000015  48.27999878
H    22.72000122   9.63000011  52.28000259
H    14.51000023   9.15999985  52.36000061
H    25.40999985   9.44000053  49.62999725
H    25.00000000  10.65000057  50.81999969
S    13.78000069   7.63000011  47.85999680
C    11.11999989   7.79999971  48.53000259
C    12.41000080   8.15999985  48.85000229
C    12.81000042   8.59000015  50.15999603
C    11.82000065   8.75000000  51.11000061
C    10.47000027   8.47000027  50.80999756
C     9.39000034   8.64999962  51.72000122
C     8.09000015   8.38000011  51.36000061
C     7.76999998   7.81000042  50.10000229
C     8.78000069   7.53999996  49.20999908
C    10.11000061   7.96000004  49.51000214
C    14.26000023   8.69000053  50.28999710
C    14.88999939   8.10000038  49.16999817
C    16.25000000   7.86000013  49.02999878
C     6.32000017   7.46000004  49.85000229
H     5.88025045   8.01323318  49.02014923
H    10.88999939   7.42000008  47.54000092
H    12.11999989   9.09000015  52.09999847
H     9.55000019   8.90999985  52.77000046
H     7.40999985   8.52000046  52.19999695
H     8.51000023   6.90999985  48.36999893
H    16.67000008   7.53000021  48.08000183
H     5.80999947   7.63000011  50.80999756
H     6.25000000   6.38000011  49.68999863
