96

S    17.05999947   9.02999973  58.68999863
C    19.78999901   8.69000053  58.09999847
C    18.46999931   8.43999958  57.78999710
C    18.09999847   7.78999996  56.56999969
C    19.07999992   7.50000000  55.63999939
C    20.43999863   7.83999968  55.83000183
C    21.48999977   7.62000036  54.89999771
C    22.79000092   7.92000008  55.24000168
C    23.08000183   8.47000027  56.52000046
C    22.10000038   8.82999992  57.42000198
C    20.76000023   8.50000000  57.08000183
C    16.64999962   7.82000017  56.38999939
C    15.93999958   8.42000008  57.45999908
C    14.55000019   8.52999973  57.52999878
C    24.54000092   8.71999931  56.79000092
H    24.90930176   8.19445705  57.67063904
H    19.98999977   9.06999969  59.09999847
H    18.82999992   7.09999990  54.65999985
H    21.18000031   7.16000032  53.95999908
H    23.61000061   7.72000027  54.55999756
H    22.30999947   9.21000004  58.40999985
H    14.06999969   8.86999989  58.43999863
H    25.17000008   8.46000004  55.93000031
H    24.54999924   9.78999996  57.02999878
S    13.56999969   7.27999973  53.88999939
C    10.82999992   7.40999985  54.40000153
C    12.10999966   7.67000008  54.81999969
C    12.42000008   8.10999966  56.14999771
C    11.42000008   8.47999954  57.02000046
C    10.10000038   8.10000038  56.68000031
C     9.01000023   8.27999973  57.56999969
C     7.72000027   7.94000053  57.22000122
C     7.44999981   7.23999977  56.00999832
C     8.50000000   7.03000021  55.15999603
C     9.81000042   7.53000021  55.38000107
C    13.86000061   8.15999985  56.37000275
C    14.60999966   7.65999985  55.27000046
C    15.97000027   7.34000015  55.27000046
C     6.05000019   6.78999996  55.66999817
H     5.55153036   7.52346325  55.03623199
H    10.50000000   6.93000031  53.47999954
H    11.61999893   9.00000000  57.95000076
H     9.22999954   8.69000053  58.54999924
H     6.90000010   8.23000050  57.87000275
H     8.38999939   6.48000002  54.22000122
H    16.47999954   6.96000004  54.38999939
H     5.46999979   6.56000042  56.56999969
H     6.24000025   5.84000015  55.13999939
S    17.42000008   8.89999962  52.93000031
C    20.12000084   9.06000042  52.19999695
C    18.84000015   8.69000053  51.88000107
C    18.50000000   8.01999950  50.65999985
C    19.54000092   7.69999981  49.79999924
C    20.82999992   8.23000050  49.99000168
C    21.84000015   8.15999985  48.99000168
C    23.11000061   8.55000019  49.34999847
C    23.48999977   9.02999973  50.63999939
C    22.49000168   9.23999977  51.56000137
C    21.15999985   8.82999992  51.25999832
C    17.05000114   7.88999987  50.52999878
C    16.31999969   8.39999962  51.63999939
C    14.96000099   8.67000008  51.59000015
C    24.93999863   9.30000019  50.96000290
H    25.45276642   8.61631203  51.63656616
H    20.29999924   9.57999992  53.13999939
H    19.37000084   7.20000029  48.86000061
H    21.68000031   7.76999998  47.98999786
H    23.90999985   8.43000031  48.62999725
H    22.72999954   9.63000011  52.55000305
H    14.45000076   9.17000008  52.41000366
H    25.45999908   9.32999992  49.99000168
H    25.13000107  10.32999992  51.29000092
S    13.93000031   7.37999964  48.00000000
C    11.18000031   7.40999985  48.55999756
C    12.46000099   7.76000023  48.92000198
C    12.79000092   8.36000061  50.19000244
C    11.80999947   8.69999981  51.10000229
C    10.51000023   8.25000000  50.79999924
C     9.36999989   8.43999958  51.63999939
C     8.06999969   8.14999962  51.31000137
C     7.83999968   7.46000004  50.08999634
C     8.89000034   7.09999990  49.27999878
C    10.19000053   7.59000015  49.55999756
C    14.22000027   8.36000061  50.44000244
C    14.98000050   7.88000011  49.34000015
C    16.35000038   7.63999987  49.34999847
C     6.38999987   7.09999990  49.87999725
H     5.95715904   7.62508583  49.02850723
H    10.92000008   6.94000006  47.62000275
H    12.13000107   9.09000015  52.06999969
H     9.47000027   8.89999962  52.61000061
H     7.31999969   8.31999969  52.09000015
H     8.82000065   6.57000017  48.33000183
H    16.76000023   7.32999992  48.40000153
H     5.80999947   7.46000004  50.72999954
H     6.21999979   6.01999998  49.73999786
