96

S    16.84000015   8.19000053  59.05000305
C    19.55999947   8.56999969  58.36000061
C    18.29000092   8.15999985  58.02000046
C    17.92000008   7.78999996  56.69000244
C    18.95000076   7.69999981  55.77000046
C    20.28000069   7.97999954  56.13999939
C    21.31000137   7.73999977  55.18000031
C    22.60999870   8.06999969  55.47999954
C    23.02999878   8.50000000  56.77000046
C    22.03000069   8.63000011  57.70999908
C    20.65000153   8.42000008  57.45999908
C    16.48999977   7.59999990  56.51000214
C    15.75000000   7.88000011  57.68000031
C    14.37000084   8.06999969  57.65999603
C    24.47999954   8.69999981  57.12999725
H    24.98435402   8.06067944  57.85456467
H    19.85000038   8.88000011  59.36000061
H    18.78999901   7.44999981  54.72000122
H    20.97999954   7.22000027  54.29000092
H    23.35000038   7.71000004  54.77000427
H    22.42000198   8.65999985  58.72000122
H    13.81000042   8.36000061  58.54000092
H    25.13999939   8.89999962  56.27999878
H    24.37000084   9.76000023  57.39999771
S    13.26000023   6.91999960  53.99000168
C    10.53999996   7.00000000  54.71000290
C    11.85999966   7.22000027  55.04000092
C    12.22000027   7.71000004  56.32999802
C    11.26000023   7.86999989  57.30999756
C     9.89999962   7.57000017  57.01000214
C     8.89999962   7.67000008  58.02000046
C     7.55999994   7.55000019  57.71999741
C     7.20000029   7.17000008  56.39999771
C     8.13000011   7.13999987  55.38999939
C     9.52000046   7.21000004  55.66999817
C    13.67000008   7.82000017  56.46999741
C    14.34999943   7.36999989  55.31000137
C    15.73999977   7.30999994  55.35999680
C     5.80999947   6.65999985  56.06999969
H     5.41077185   7.08774424  55.15035248
H    10.36999893   6.65999985  53.68999863
H    11.56999969   8.10000038  58.31999969
H     9.11000061   8.03999996  59.01000214
H     6.80000019   7.68000031  58.47999954
H     7.99000025   6.80999994  54.36000061
H    16.25000000   7.11999989  54.41999817
H     5.18000031   6.76999998  56.97000122
H     5.88999987   5.56999969  55.93999863
S    16.98999977   8.80000019  52.65999603
C    19.72999954   9.10000038  52.08000183
C    18.45999908   8.76000023  51.66999817
C    18.12999916   8.38000011  50.33000183
C    19.17000008   8.14000034  49.45000076
C    20.48999977   8.48999977  49.82999802
C    21.61999893   8.34999943  48.97999573
C    22.89999962   8.64999962  49.36999893
C    23.18000031   9.09000015  50.68999863
C    22.13000107   9.26000023  51.56000137
C    20.79999924   8.97000027  51.14999771
C    16.69999886   8.38999939  50.06999969
C    15.95000076   8.69999981  51.23000336
C    14.55999947   8.71000004  51.29000092
C    24.61999893   9.39000034  51.04000092
H    25.00200653   8.74624825  51.83230972
H    20.00000000   9.56999969  53.02000046
H    19.05999947   7.79999971  48.43000031
H    21.50000000   7.88999987  48.00000000
H    23.65999985   8.45000076  48.61999893
H    22.17000008   9.67000008  52.56000137
H    14.13000011   8.85000038  52.28000259
H    25.17999840   9.31999969  50.10000229
H    24.63000107  10.39999962  51.45999908
S    13.47000027   7.44000006  47.76000214
C    10.73999977   7.35000038  48.43000031
C    12.02999973   7.75000000  48.73000336
C    12.41000080   8.23999977  50.01999664
C    11.46000004   8.23999977  51.03000259
C    10.14000034   7.81000042  50.72999954
C     9.10000038   7.90000010  51.70000076
C     7.76999998   7.73000002  51.38999939
C     7.42999983   7.32999992  50.07999802
C     8.36999989   7.18999958  49.08000183
C     9.72999954   7.36999989  49.41999817
C    13.83999920   8.46000004  50.12000275
C    14.59000015   8.05000019  48.99000168
C    15.98000050   8.01000023  48.93000031
C     6.00000000   6.91999960  49.79000092
H     5.54497528   7.54565907  49.02214432
H    10.47000027   7.00999975  47.43000031
H    11.72999954   8.34000015  52.06999969
H     9.46000004   8.38999939  52.60000229
H     7.00999975   8.10000038  52.08000183
H     8.28999996   6.84000015  48.04999924
H    16.44000053   7.50000000  48.09000015
H     5.47999954   6.81999969  50.75000000
H     6.01999998   5.91000032  49.38000107
