96

S    16.69999886   8.64999962  58.75000000
C    19.47999954   8.55000019  58.22999954
C    18.18000031   8.36999989  57.81000137
C    17.90999985   7.88000011  56.49000168
C    18.96000099   7.73000002  55.59000015
C    20.28000069   8.02999973  55.97999954
C    21.40000153   7.83999968  55.11000061
C    22.67000008   8.23999977  55.44000244
C    22.88999939   8.78999996  56.72999954
C    21.90000153   8.76999950  57.69000244
C    20.56999969   8.46000004  57.31999969
C    16.48999977   7.67000008  56.25999832
C    15.72000027   8.10999966  57.36999893
C    14.32999992   8.21000004  57.36999893
C    24.30000114   9.04999924  57.21000290
H    24.65388870   8.45546627  58.05225754
H    19.63999939   8.76999950  59.27999878
H    18.72999954   7.44999981  54.56999969
H    21.25999832   7.32999992  54.15999985
H    23.51000023   7.96000004  54.80999756
H    22.06000137   9.06000042  58.73000336
H    13.81000042   8.47000027  58.29000092
H    24.87999916   8.82000065  56.31000137
H    24.23999977  10.14000034  57.29000092
S    13.36999989   7.28999996  53.61000061
C    10.62999916   7.20000029  54.18000031
C    11.90000057   7.50999975  54.59000015
C    12.20999908   7.81000042  55.94999695
C    11.16000080   7.95000029  56.84000015
C     9.81000042   7.82999992  56.40999603
C     8.71000004   7.99000025  57.29000092
C     7.42999983   7.69999981  56.86999893
C     7.23999977   7.07000017  55.61000061
C     8.25000000   6.89000034  54.68999863
C     9.53999996   7.35000038  55.07999802
C    13.63999939   7.82000017  56.22000122
C    14.37999916   7.55000019  55.04000092
C    15.77000046   7.42000008  55.08999634
C     5.84999990   6.54999971  55.34999847
H     5.41495037   7.07776499  54.50129700
H    10.44999981   6.83000040  53.16999817
H    11.26000023   8.18000031  57.90000153
H     8.90999985   8.38000011  58.27999878
H     6.63999987   7.82999992  57.61000061
H     8.13000011   6.48000002  53.68999863
H    16.35000038   7.25000000  54.19000244
H     5.27999973   6.69000053  56.27999878
H     5.79999971   5.46999979  55.14999771
S    17.30999947   9.10000038  52.72999573
C    20.00000000   9.19999981  52.11999893
C    18.73999977   8.82999992  51.72000122
C    18.44000053   8.36000061  50.40000153
C    19.47999954   8.10000038  49.52999878
C    20.79000092   8.50000000  49.86000061
C    21.83000183   8.42000008  48.88999939
C    23.09000015   8.86999989  49.22999954
C    23.39999962   9.32999992  50.54000092
C    22.37999916   9.40999985  51.45999908
C    21.04000092   9.00000000  51.18999863
C    17.00000000   8.43999958  50.14999771
C    16.28000069   8.80999947  51.31000137
C    14.89999962   8.97000027  51.33999634
C    24.79000092   9.77999973  50.91999817
H    25.23877525   9.04628754  51.58959961
H    20.25000000   9.72000027  53.04000092
H    19.19999886   7.81000042  48.52000427
H    21.60000038   8.01999950  47.90000153
H    23.81999969   9.00000000  48.44999695
H    22.65000153   9.77999973  52.43999863
H    14.53999996   9.22000027  52.32999802
H    25.45000076   9.88000011  50.05000305
H    24.87999916  10.67000008  51.55000305
S    13.83999920   7.69000006  47.76000214
C    11.06999969   7.64999962  48.44999695
C    12.36999989   8.03999996  48.68999863
C    12.68000031   8.64000034  49.94999695
C    11.71000004   8.73999977  50.93000031
C    10.38000011   8.32999992  50.70999908
C     9.28999996   8.46000004  51.62000275
C     8.00000000   8.19000053  51.22000122
C     7.67000008   7.57000017  49.99000168
C     8.73000050   7.32999992  49.13999939
C    10.05000019   7.78999996  49.41999817
C    14.11000061   8.71999931  50.20999908
C    14.85999966   8.23999977  49.09999847
C    16.23999977   8.05999947  49.05000305
C     6.28999996   7.11000013  49.56999969
H     5.87855196   7.66332674  48.72581863
H    10.80999947   7.14999962  47.51999664
H    11.98999977   9.11999989  51.90999985
H     9.46000004   8.85999966  52.62000275
H     7.21000004   8.30000019  51.95000076
H     8.59000015   6.88000011  48.15999985
H    16.68000031   7.53999996  48.20000076
H     5.73000002   7.14999962  50.51000214
H     6.46000004   6.06999969  49.27000046
