96

S    16.87000084   8.46000004  58.79000092
C    19.61000061   8.47999954  58.06999969
C    18.29000092   8.27000046  57.75000000
C    17.87999916   7.90999985  56.43000031
C    18.89999962   7.90999985  55.50000000
C    20.29000092   8.06999969  55.75000000
C    21.35999870   7.72000027  54.87999725
C    22.67999840   7.78999996  55.25000000
C    23.02000046   8.27000046  56.53999710
C    22.01999855   8.57999992  57.42000198
C    20.63999939   8.38999939  57.09999847
C    16.44000053   7.79999971  56.26999664
C    15.75000000   8.21000004  57.43999863
C    14.35999966   8.27000046  57.50999832
C    24.46000099   8.60999966  56.88000107
H    24.97250366   7.95513439  57.58469391
H    19.82999992   8.85000038  59.06999969
H    18.60000038   7.50000000  54.54000092
H    21.15999985   7.36000013  53.87000275
H    23.39999962   7.36999989  54.54999924
H    22.21999931   9.11999989  58.34999847
H    13.96999931   8.60000038  58.47000122
H    25.00999832   8.75000000  55.93999863
H    24.47999954   9.53999996  57.47000122
S    13.23999977   7.09999990  53.80000305
C    10.57999992   7.07000017  54.54000092
C    11.87999916   7.35000038  54.89999771
C    12.22000027   7.76999998  56.23000336
C    11.25000000   7.90999985  57.19999695
C     9.90999985   7.57999992  56.88000107
C     8.84000015   7.65999985  57.81000137
C     7.55999994   7.32999992  57.43000031
C     7.23999977   6.90999985  56.11000061
C     8.26000023   6.80999994  55.18000031
C     9.59000015   7.13000011  55.54999924
C    13.66000080   7.97999954  56.32999802
C    14.30999947   7.53000021  55.14999771
C    15.69000053   7.40000010  55.14999771
C     5.86999989   6.30999994  55.86000061
H     5.39456367   6.91316509  55.08653259
H    10.42000008   6.58999968  53.57999802
H    11.44999981   8.36000061  58.16999817
H     9.02999973   8.01000023  58.82999802
H     6.78999996   7.44999981  58.18000031
H     8.17000008   6.44999981  54.15999985
H    16.25000000   7.03000021  54.29000092
H     5.47999954   6.40999985  56.86999893
H     5.88000011   5.26999998  55.51000214
S    13.96999931   5.23999977  50.90000153
C    11.33999920   4.71000004  51.44000244
C    12.64999962   4.42999983  51.77000046
C    13.09999943   3.88000011  53.01000214
C    12.10999966   3.55999994  53.93000031
C    10.75000000   3.65999985  53.56999969
C     9.68999958   3.10999990  54.34999847
C     8.34999943   3.19999981  54.06000137
C     8.07999992   3.98999977  52.90999985
C     8.97000027   4.44999981  51.97000122
C    10.34000015   4.21999979  52.30999756
C    14.55000019   3.93000007  53.11999893
C    15.15999985   4.72000027  52.11000061
C    16.47999954   5.10999966  52.25000000
C     6.61000013   4.28999996  52.69000244
H     6.23374224   3.91374183  51.73870850
H    11.07999992   5.19999981  50.50000000
H    12.38000011   2.98000002  54.80999756
H     9.96999931   2.73999977  55.34000015
H     7.60999966   2.96999979  54.81999969
H     8.71999931   5.07000017  51.11000061
H    17.00000000   5.60999966  51.43000031
H     6.01999998   3.98000002  53.54999924
H     6.48999977   5.38000011  52.80000305
S    17.70000076   3.58999991  55.68999863
C    20.39999962   4.03999996  55.14999771
C    19.09000015   4.23999977  54.79000092
C    18.68000031   4.79999971  53.53000259
C    19.69000053   5.15999985  52.67000198
C    21.05999947   5.00999975  53.00000000
C    22.11999893   5.40999985  52.12999725
C    23.40999985   5.09000015  52.44999695
C    23.78999901   4.46000004  53.67000198
C    22.79000092   4.11999989  54.55999756
C    21.42999840   4.39000034  54.23999786
C    17.23999977   4.67000008  53.33000183
C    16.59000015   3.93000007  54.34999847
C    15.22999954   3.61000013  54.29999924
C    25.23999977   4.11999989  53.90999603
H    25.66079330   4.64777470  54.76585007
H    20.72000122   3.51999998  56.04999924
H    19.45999908   5.64000034  51.72000122
H    21.83000183   5.89999962  51.19999695
H    24.20000076   5.42999983  51.77999878
H    23.05999947   3.58999991  55.45999908
H    14.75000000   3.09999990  55.13000107
H    25.86000061   4.41000032  53.04999924
H    25.40999985   3.05000019  54.06999969
