96

S    16.76000023   8.52999973  58.96999741
C    19.47000122   8.69000053  58.25000000
C    18.15999985   8.50000000  57.88000107
C    17.81999969   7.95000029  56.59999847
C    18.78999901   7.88999987  55.63000107
C    20.15000153   8.14999962  55.94999695
C    21.19999886   8.10000038  54.99000168
C    22.50000000   8.27000046  55.38000107
C    22.85000038   8.67999935  56.70000076
C    21.84000015   8.86999989  57.62000275
C    20.50000000   8.53999996  57.29000092
C    16.36999893   7.86000013  56.43000031
C    15.67000008   8.23999977  57.58999634
C    14.27999973   8.32999992  57.71999741
C    24.27999878   9.04999924  56.97999954
H    24.64929962   8.43923473  57.80382156
H    19.73999977   9.11000061  59.22000122
H    18.53999901   7.68000031  54.59000015
H    21.09000015   7.76999998  53.95999908
H    23.31999969   8.15999985  54.66999817
H    22.11999893   9.25000000  58.60000229
H    13.73999977   8.64000034  58.60000229
H    24.84000015   8.94999981  56.04000092
H    24.37999916  10.10000038  57.28000259
S    13.12999916   7.37999964  54.06000137
C    10.43000031   7.26000023  54.69999695
C    11.72000027   7.50999975  55.12000275
C    12.10999966   7.83999968  56.45999908
C    11.06999969   7.95000029  57.36999893
C     9.75000000   7.59000015  57.02000046
C     8.69999981   7.59999990  57.97999954
C     7.42000008   7.22000027  57.63999939
C     7.05999947   7.05999947  56.27999878
C     8.02999973   7.11000013  55.31000137
C     9.39999962   7.25000000  55.66999817
C    13.53999996   8.07999992  56.56000137
C    14.26000023   7.82000017  55.35999680
C    15.62999916   7.68000031  55.25000000
C     5.64000034   6.71000004  55.87999725
H     5.27112246   7.38391161  55.10677338
H    10.29999924   7.02000046  53.64999771
H    11.26000023   8.31999969  58.37999725
H     9.01000023   7.82000017  59.00000000
H     6.72999954   6.90000010  58.41999817
H     7.71000004   7.00999975  54.27000046
H    16.09000015   7.48000050  54.29000092
H     4.98000002   6.56000042  56.73999786
H     5.75999975   5.69000006  55.48999786
S    17.21999931   9.26999950  52.85999680
C    19.95000076   9.38000011  52.22000122
C    18.68000031   8.96000004  51.90000153
C    18.35000038   8.34000015  50.65999985
C    19.38999939   8.26000023  49.73999786
C    20.69999886   8.65999985  50.10000229
C    21.77999878   8.40999985  49.20000076
C    23.08000183   8.43999958  49.62999725
C    23.38999939   9.11000061  50.84000015
C    22.43000031   9.36999989  51.79999924
C    21.07999992   9.13999939  51.39999771
C    16.92000008   8.15999985  50.45000076
C    16.20000076   8.57999992  51.59000015
C    14.80999947   8.69999981  51.59000015
C    24.76000023   9.72999954  50.97999954
H    25.34833717   9.09913254  51.64630890
H    20.03999901   9.61999989  53.27999878
H    19.12999916   8.01999950  48.72000122
H    21.53000069   7.94000053  48.25000000
H    23.85999870   8.05000019  48.97999573
H    22.60000038   9.94999981  52.70000076
H    14.37999916   9.26000023  52.42000198
H    25.20000076   9.75000000  49.98000336
H    24.72999954  10.73999977  51.38999939
S    13.67000008   7.57000017  48.00000000
C    10.90000057   7.63000011  48.57999802
C    12.20999908   7.76000023  48.99000168
C    12.61999989   8.23000050  50.27000046
C    11.64000034   8.52999973  51.19999695
C    10.29000092   8.25000000  50.86999893
C     9.22999954   8.47999954  51.79000092
C     7.90999985   8.34000015  51.44000244
C     7.59000015   7.81000042  50.15999603
C     8.53999996   7.55000019  49.20000076
C     9.89000034   7.82000017  49.55999756
C    14.06000042   8.30999947  50.47000122
C    14.80000019   7.92999983  49.31999969
C    16.18000031   7.92999983  49.27999878
C     6.14000034   7.50999975  49.85000229
H     5.85566378   7.98626375  48.91169357
H    10.59000015   7.50999975  47.55000305
H    11.92000008   8.96000004  52.15999985
H     9.36999989   8.93000031  52.76000214
H     7.11000013   8.47999954  52.15999985
H     8.19000053   7.05999947  48.29000092
H    16.64999962   7.68000031  48.33000183
H     5.63000011   7.85000038  50.76000214
H     5.96000004   6.44999981  49.64000320
