96

S    16.84999847   8.34000015  58.68999863
C    19.52999878   8.69000053  57.94000244
C    18.29000092   8.14999962  57.67000198
C    17.86999893   7.62000036  56.40999603
C    18.86000061   7.31999969  55.50000000
C    20.17999840   7.76999998  55.73999786
C    21.21999931   7.55000019  54.79000092
C    22.50999832   7.88999987  55.12000275
C    22.84000015   8.65999985  56.25999832
C    21.84000015   8.97000027  57.15000153
C    20.51000214   8.51000023  56.93000031
C    16.43000031   7.46000004  56.24000168
C    15.73999977   7.76999998  57.43999863
C    14.37999916   8.05999947  57.43000031
C    24.25000000   9.17000008  56.50000000
H    24.79217911   8.54934692  57.21339417
H    19.70000076   9.21000004  58.88000107
H    18.65999985   6.84000015  54.54999924
H    21.00000000   7.03000021  53.86000061
H    23.31999969   7.59000015  54.45999908
H    22.10000038   9.52000046  58.04999924
H    13.85000038   8.56000042  58.23999786
H    24.73999977   9.26000023  55.52000046
H    24.17000008  10.18000031  56.93999863
S    13.21000004   7.09000015  53.75999832
C    10.54999924   6.94999981  54.50000000
C    11.79999924   7.46000004  54.78000259
C    12.20999908   7.82000017  56.10000229
C    11.19999981   7.92000008  57.04999924
C     9.85000038   7.59999990  56.73999786
C     8.84000015   7.55999994  57.75000000
C     7.59999990   7.09999990  57.38999939
C     7.17999983   6.76000023  56.06999969
C     8.18000031   6.70000029  55.12000275
C     9.48999977   7.14999962  55.41999817
C    13.64999962   7.78999996  56.25999832
C    14.32999992   7.32999992  55.11000061
C    15.72000027   7.18999958  55.06999969
C     5.71000004   6.52999973  55.84000015
H     5.32500601   7.05045462  54.96306992
H    10.40999985   6.25000000  53.68000031
H    11.32999992   8.18000031  58.09000015
H     9.11999989   7.73999977  58.77999878
H     6.81999969   7.00999975  58.13000107
H     7.92999983   6.34999990  54.12000275
H    16.20000076   6.93000031  54.13000107
H     5.05999994   6.76999998  56.69000244
H     5.59000015   5.46000004  55.65000153
S    13.82999992   4.97000027  50.76000214
C    11.11999989   4.51000023  51.43000031
C    12.46000099   4.39000034  51.70999908
C    12.86999893   3.82999992  52.97000122
C    11.95000076   3.40999985  53.90999603
C    10.57999992   3.35999990  53.56999969
C     9.53999996   2.82999992  54.40000153
C     8.22000027   2.86999989  54.03999710
C     7.83999968   3.60000014  52.88000107
C     8.78000069   4.17000008  52.05999756
C    10.15999985   3.98999977  52.34000397
C    14.29999924   4.00999975  53.16999817
C    14.93999958   4.71000004  52.11999893
C    16.31999969   4.88999987  52.09000015
C     6.37000036   3.79999995  52.60000229
H     6.00024462   3.48001933  51.62583923
H    10.70000076   5.05999994  50.58000183
H    12.18000031   2.82000017  54.79000092
H     9.82999992   2.39999986  55.34999847
H     7.50999975   2.37000012  54.69999695
H     8.56999969   4.65999985  51.11000061
H    16.70999908   5.50000000  51.29000092
H     5.78999996   3.38999987  53.43000031
H     6.25000000   4.88999987  52.63999939
S    17.63000107   3.33999991  55.45000076
C    20.29000092   3.77999997  54.79000092
C    18.96000099   4.00000000  54.48999786
C    18.57999992   4.65999985  53.27999878
C    19.55999947   5.03999996  52.37999725
C    20.93000031   4.88999987  52.70999908
C    21.94999886   5.27999973  51.81000137
C    23.28000069   5.18000031  52.15000153
C    23.65999985   4.57999992  53.37999725
C    22.70000076   4.13000011  54.26000214
C    21.31999969   4.23000002  53.93000031
C    17.13000107   4.53000021  53.18000031
C    16.45000076   3.84000015  54.20999908
C    15.07999992   3.61000013  54.25000000
C    25.10000038   4.26000023  53.73000336
H    25.43445778   4.59445906  54.71202850
H    20.62999916   3.25999999  55.68000031
H    19.29000092   5.47999954  51.42000198
H    21.77000046   5.86000013  50.90000153
H    24.01000023   5.59000015  51.45999908
H    23.06999969   3.81000018  55.22999573
H    14.65999985   3.12999988  55.13000107
H    25.75000000   4.69999981  52.95999908
H    25.20999908   3.17000008  53.68000031
