96

S    16.93000031   8.47999954  58.81999969
C    19.54000092   8.75000000  58.02000046
C    18.29000092   8.25000000  57.70999908
C    17.94000053   7.88000011  56.38000107
C    18.92000008   7.90999985  55.40999985
C    20.25000000   8.26000023  55.76000214
C    21.35000038   8.05999947  54.87999725
C    22.60999870   8.47999954  55.20999908
C    22.88000107   9.17000008  56.43000031
C    21.83000183   9.39000034  57.29999924
C    20.52999878   8.89999962  57.01000214
C    16.48999977   7.76999998  56.30000305
C    15.80999947   8.07999992  57.50999832
C    14.42000008   8.18000031  57.51999664
C    24.30000114   9.43000031  56.86999893
H    24.59118462   8.76950836  57.68673706
H    19.78999901   8.97000027  59.06000137
H    18.67000008   7.48000050  54.43999863
H    21.01000023   7.67000008  53.92000198
H    23.45999908   8.19999981  54.59999847
H    22.09000015   9.68999958  58.30999756
H    13.92000008   8.46000004  58.44999695
H    25.00999832   9.38000011  56.04000092
H    24.33000183  10.44000053  57.30999756
S    13.42000008   7.65999985  53.67000198
C    10.69000053   7.35000038  54.31999969
C    11.98999977   7.59999990  54.71000290
C    12.27000046   7.88000011  56.07999802
C    11.23999977   7.92999983  57.01000214
C     9.96000004   7.44999981  56.63999939
C     8.86999989   7.27999973  57.54000092
C     7.59999990   6.94999981  57.11999893
C     7.30000019   6.75000000  55.75000000
C     8.34999943   6.75000000  54.86000061
C     9.64999962   7.17999983  55.26000214
C    13.69999981   8.01999950  56.33999634
C    14.40000057   7.69000006  55.14999771
C    15.76000023   7.40000010  55.15999603
C     5.89999962   6.32000017  55.35999680
H     5.54562426   6.85865116  54.48114777
H    10.52000046   7.13999987  53.26000214
H    11.49000072   8.09000015  58.04999924
H     9.02000046   7.44999981  58.60000229
H     6.88000011   6.67999983  57.88999939
H     8.18000031   6.40999985  53.85000229
H    16.36000061   7.16000032  54.29000092
H     5.19999981   6.67999983  56.11999893
H     5.84999990   5.23999977  55.24000168
S    17.38000107   9.02000046  52.70999908
C    20.06000137   9.21000004  51.90000153
C    18.76000023   8.88000011  51.59999847
C    18.40999985   8.43000031  50.28999710
C    19.40999985   8.32999992  49.34000015
C    20.76999855   8.60000038  49.62999725
C    21.73000145   8.50000000  48.57999802
C    23.01000214   8.88000011  48.89999771
C    23.36999893   9.34000015  50.19000244
C    22.43999863   9.48000050  51.18999863
C    21.09999847   9.06000042  50.94999695
C    16.95999908   8.28999996  50.20000076
C    16.27000046   8.76999950  51.33999634
C    14.91000080   9.00000000  51.25000000
C    24.82000160   9.65999985  50.47999954
H    25.21720314   9.20605564  51.38788986
H    20.36000061   9.65999985  52.84999847
H    19.19000053   8.10999966  48.29000092
H    21.32999802   8.27999973  47.60000229
H    23.77000046   8.85999966  48.11999893
H    22.62000084   9.92000008  52.15999985
H    14.34000015   9.31999969  52.11999893
H    25.45999908   9.48999977  49.59999847
H    24.87999916  10.73999977  50.66999817
S    13.94000053   7.96999979  47.54000092
C    11.21000099   8.15999985  47.94000244
C    12.46999931   8.43000031  48.41999817
C    12.81000042   8.67000008  49.79000092
C    11.72999954   8.75000000  50.65000153
C    10.42000008   8.42000008  50.24000168
C     9.30999947   8.40999985  51.13999939
C     8.10999966   7.83999968  50.77999878
C     7.92000008   7.37999964  49.45000076
C     8.89999962   7.48000050  48.50000000
C    10.14999962   8.05999947  48.88000107
C    14.23999977   8.69999981  50.06000137
C    14.96999931   8.14999962  48.96999741
C    16.32999992   7.86000013  49.02999878
C     6.48999977   7.07000017  49.06000137
H     5.94655037   7.67065477  48.33063507
H    11.02000046   7.75000000  46.95000076
H    12.00000000   8.97999954  51.68000031
H     9.53999996   8.71999931  52.15999985
H     7.31999969   7.73000002  51.51000214
H     8.69999981   7.32999992  47.43999863
H    16.87000084   7.44000006  48.18000031
H     5.98000002   6.98999977  50.02999878
H     6.51000023   6.03999996  48.67000198
