96

S    16.90999985   8.42000008  58.92000198
C    19.56999969   8.64000034  58.15999985
C    18.27999878   8.30999947  57.80000305
C    17.93000031   7.73999977  56.53999710
C    18.90999985   7.63000011  55.56999969
C    20.25000000   7.92000008  55.90000153
C    21.34000015   7.76000023  55.00000000
C    22.62000084   8.10999966  55.37000275
C    22.95000076   8.59000015  56.66999817
C    21.94999886   8.63000011  57.61000061
C    20.59999847   8.38000011  57.22000122
C    16.47999954   7.63000011  56.45999908
C    15.77000046   8.02999973  57.62000275
C    14.40000057   8.26000023  57.63000107
C    24.27000046   9.22999954  57.04000092
H    24.79551888   8.58375168  57.74306107
H    19.85999870   9.10000038  59.09999847
H    18.71999931   7.28999996  54.55999756
H    21.01000023   7.60999966  53.97999573
H    23.32999992   8.14000034  54.54999924
H    22.00000000   9.06999969  58.60000229
H    13.86999989   8.34000015  58.57999802
H    24.86000061   9.46000004  56.13999939
H    24.03000069  10.06999969  57.70000076
S    13.17999935   7.17999983  54.01000214
C    10.47999954   7.04999971  54.79000092
C    11.79999924   7.27999973  55.12000275
C    12.22000027   7.77999973  56.39999771
C    11.23999977   7.94000053  57.36999893
C     9.89000034   7.62000036  57.09999847
C     8.92000008   7.82000017  58.11999893
C     7.57999992   7.65999985  57.85999680
C     7.21000004   7.36999989  56.52000046
C     8.09000015   7.21000004  55.47999954
C     9.48000050   7.22000027  55.77999878
C    13.66000080   7.90999985  56.49000168
C    14.34000015   7.55000019  55.30000305
C    15.72000027   7.36999989  55.31000137
C     5.78000021   6.88000011  56.43000031
H     5.24007177   7.29205036  55.57748032
H    10.24000072   6.94999981  53.73000336
H    11.49000072   8.22000027  58.39000320
H     9.34000015   8.03999996  59.09999847
H     6.83000040   7.65999985  58.63999939
H     7.77999973   7.04999971  54.45000076
H    16.21999931   7.13000011  54.38000107
H     5.26999998   7.03999996  57.38999939
H     5.82000017   5.79999971  56.26999664
S    17.28999901   8.88000011  52.70999908
C    19.96999931   9.10000038  51.98999786
C    18.68000031   8.82999992  51.59999847
C    18.27999878   8.38000011  50.30000305
C    19.27999878   8.21000004  49.36999893
C    20.61000061   8.60999966  49.65000153
C    21.63999939   8.51000023  48.68000031
C    22.93000031   8.85999966  49.00000000
C    23.29000092   9.23999977  50.31999969
C    22.34000015   9.18000031  51.31999969
C    20.97999954   8.90999985  51.00999832
C    16.82999992   8.28999996  50.15999603
C    16.17000008   8.46000004  51.40999603
C    14.78999996   8.61999989  51.49000168
C    24.73999977   9.51000023  50.63999939
H    25.18136978   8.91201687  51.43731308
H    20.19000053   9.57999992  52.93000031
H    19.03000069   7.88999987  48.36000061
H    21.37000084   8.18000031  47.68000031
H    23.61000061   8.64999962  48.18000031
H    22.57999802   9.39000034  52.36000061
H    14.29999924   8.82999992  52.43000031
H    25.31999969   9.39000034  49.72000122
H    24.89000130  10.47999954  51.12999725
S    13.55000019   7.85000038  47.77999878
C    10.93000031   7.46999979  48.57999802
C    12.20000076   7.86999989  48.93000031
C    12.56999969   8.19999981  50.27000046
C    11.56000042   8.38999939  51.18999863
C    10.21000004   8.19000053  50.83000183
C     9.15000057   8.45000076  51.75000000
C     7.85000038   8.10999966  51.45999908
C     7.57999992   7.44000006  50.24000168
C     8.56999969   7.16000032  49.33000183
C     9.89999962   7.60999966  49.54999924
C    14.01000023   8.39999962  50.34000015
C    14.68000031   8.23000050  49.09999847
C    16.05999947   8.18000031  49.00000000
C     6.19000006   7.03000021  49.80999756
H     5.81941462   7.70703030  49.04032516
H    10.77999973   7.07999992  47.57999802
H    11.72999954   8.80999947  52.18000031
H     9.39000034   8.64000034  52.78999710
H     7.09000015   8.23000050  52.22999954
H     8.36999989   6.57000017  48.43000031
H    16.54999924   7.79999971  48.11000061
H     5.51000023   7.03999996  50.66999817
H     6.26999950   5.98000002  49.50000000
