96

S    17.14999962   8.88000011  58.54999924
C    19.85000038   9.01000023  57.84999847
C    18.55999947   8.67000008  57.50000000
C    18.23999977   8.17000008  56.19999695
C    19.26000023   7.99000025  55.28999710
C    20.59999847   8.28999996  55.63999939
C    21.68999863   8.00000000  54.77000427
C    22.98000145   8.32999992  55.11000061
C    23.31000137   8.93000031  56.35000229
C    22.27000046   9.17000008  57.22000122
C    20.92000008   8.82999992  56.93000031
C    16.79999924   7.96999979  56.05999756
C    16.09000015   8.32999992  57.22999954
C    14.70999908   8.48999977  57.25999832
C    24.70999908   9.27999973  56.79999924
H    25.04606438   8.77947521  57.70809174
H    20.03999901   9.43000031  58.82999802
H    19.00000000   7.49000025  54.36000061
H    21.38000107   7.50999975  53.85000229
H    23.82999802   8.01999950  54.51000214
H    22.39000130   9.57999992  58.22000122
H    14.30999947   8.98999977  58.13999939
H    25.42000008   8.90999985  56.04999924
H    24.90999985  10.36000061  56.88999939
S    13.63000011   7.32999992  53.59000397
C    10.93999958   7.30000019  54.29000092
C    12.23999977   7.57000017  54.65999985
C    12.51999950   8.05000019  55.97999954
C    11.49000072   8.30999947  56.86000061
C    10.11999989   8.17000008  56.51000214
C     9.04999924   8.19000053  57.43999863
C     7.76000023   7.77999973  57.16999817
C     7.53000021   7.23999977  55.87999725
C     8.57999992   7.09000015  55.00000000
C     9.92000008   7.51999950  55.24000168
C    13.96000004   8.03999996  56.16000366
C    14.65999985   7.62000036  55.00000000
C    16.04999924   7.59000015  54.93999863
C     6.15000010   6.75000000  55.52999878
H     5.67507696   7.38086748  54.77862930
H    10.65000057   6.78999996  53.36999893
H    11.82999992   8.46000004  57.88000107
H     9.19000053   8.38999939  58.50000000
H     7.03000021   7.92000008  57.95999908
H     8.32999992   6.61000013  54.06000137
H    16.60000038   7.39000034  54.02000046
H     5.49000025   6.67999983  56.40999603
H     6.24000025   5.73000002  55.14999771
S    13.96000004   5.12000036  50.44000244
C    11.21999931   4.98000002  51.16000366
C    12.55000019   4.74000025  51.44000244
C    12.90999985   4.30000019  52.76000214
C    11.95000076   3.88000011  53.67000198
C    10.57999992   3.97000027  53.34999847
C     9.57999992   3.40000010  54.19000244
C     8.27999973   3.52999973  53.76999664
C     7.88999987   4.23999977  52.60000229
C     8.85999966   4.76000023  51.77999878
C    10.22999954   4.55999994  52.09000015
C    14.34999943   4.36999989  52.97999954
C    15.01999950   4.86999989  51.84000015
C    16.39000130   5.14999962  51.84999847
C     6.42000008   4.55999994  52.44999695
H     6.02175903   4.21153927  51.49706650
H    11.00000000   5.68000031  50.35999680
H    12.34000015   3.37000012  54.54000092
H     9.80000019   2.86000013  55.11000061
H     7.46999979   3.24000001  54.43999863
H     8.52000046   5.28999996  50.89000320
H    16.87000084   5.64000034  51.00999832
H     5.73000002   4.18000031  53.22000122
H     6.24000025   5.64000034  52.52999878
S    17.52000046   4.00000000  55.50000000
C    20.20999908   4.23999977  54.93000031
C    18.92000008   4.48999977  54.52000046
C    18.59000015   4.99000025  53.22000122
C    19.63999939   5.38000011  52.41000366
C    20.98999977   5.18000031  52.76000214
C    22.06000137   5.65000010  51.95000076
C    23.35000038   5.45000029  52.36999893
C    23.54999924   4.90999985  53.67000198
C    22.59000015   4.41000032  54.52999878
C    21.25999832   4.63999987  54.06999969
C    17.14999962   4.92999983  53.01000214
C    16.46000099   4.42999983  54.13999939
C    15.11999989   4.09000015  54.12000275
C    25.00000000   4.59000015  53.92000198
H    25.34167099   5.02420425  54.85959244
H    20.42000008   3.75999975  55.89000320
H    19.34999847   5.75000000  51.43000031
H    21.77999878   6.21999979  51.05999756
H    24.23000145   5.77000046  51.81000137
H    22.79000092   3.89999986  55.47000122
H    14.52000046   3.72000003  54.93999863
H    25.61000061   4.94000006  53.08000183
H    25.03999901   3.50000000  54.02999878
