96

S    16.93000031   8.47999954  58.81999969
C    19.54000092   8.75000000  58.02000046
C    18.29000092   8.25000000  57.70999908
C    17.94000053   7.88000011  56.38000107
C    18.92000008   7.90999985  55.40999985
C    20.25000000   8.26000023  55.76000214
C    21.35000038   8.05999947  54.87999725
C    22.60999870   8.47999954  55.20999908
C    22.88000107   9.17000008  56.43000031
C    21.83000183   9.39000034  57.29999924
C    20.52999878   8.89999962  57.01000214
C    16.48999977   7.76999998  56.30000305
C    15.80999947   8.07999992  57.50999832
C    14.42000008   8.18000031  57.51999664
C    24.30000114   9.43000031  56.86999893
H    24.59118462   8.76950836  57.68673706
H    19.78999901   8.97000027  59.06000137
H    18.67000008   7.48000050  54.43999863
H    21.01000023   7.67000008  53.92000198
H    23.45999908   8.19999981  54.59999847
H    22.09000015   9.68999958  58.30999756
H    13.92000008   8.46000004  58.44999695
H    25.00999832   9.38000011  56.04000092
H    24.33000183  10.44000053  57.30999756
S    13.42000008   7.65999985  53.67000198
C    10.69000053   7.35000038  54.31999969
C    11.98999977   7.59999990  54.71000290
C    12.27000046   7.88000011  56.07999802
C    11.23999977   7.92999983  57.01000214
C     9.96000004   7.44999981  56.63999939
C     8.86999989   7.27999973  57.54000092
C     7.59999990   6.94999981  57.11999893
C     7.30000019   6.75000000  55.75000000
C     8.34999943   6.75000000  54.86000061
C     9.64999962   7.17999983  55.26000214
C    13.69999981   8.01999950  56.33999634
C    14.40000057   7.69000006  55.14999771
C    15.76000023   7.40000010  55.15999603
C     5.89999962   6.32000017  55.35999680
H     5.54562426   6.85865116  54.48114777
H    10.52000046   7.13999987  53.26000214
H    11.49000072   8.09000015  58.04999924
H     9.02000046   7.44999981  58.60000229
H     6.88000011   6.67999983  57.88999939
H     8.18000031   6.40999985  53.85000229
H    16.36000061   7.16000032  54.29000092
H     5.19999981   6.67999983  56.11999893
H     5.84999990   5.23999977  55.24000168
S    13.07000065   5.27999973  51.00000000
C    10.38000011   4.84000015  51.68000031
C    11.71000004   4.76999998  52.02000046
C    12.25000000   4.17000008  53.20999908
C    11.30000019   3.75000000  54.12000275
C     9.92000008   3.77999997  53.82999802
C     9.00000000   3.14000010  54.71000290
C     7.69000006   2.91000009  54.34999847
C     7.13999987   3.49000001  53.16999817
C     8.05999947   4.05000019  52.30999756
C     9.44000053   4.25000000  52.56000137
C    13.69999981   4.26999998  53.29000092
C    14.32999992   4.90999985  52.18999863
C    15.67000008   5.26999998  52.18000031
C     5.71000004   3.17999983  52.81999969
H     5.46886730   3.62680483  51.85546875
H    10.06999969   5.29999971  50.75000000
H    11.65999985   3.25000000  55.02999878
H     9.47000027   2.70000005  55.59000015
H     7.17999983   2.14000010  54.92000198
H     7.75000000   4.42000008  51.32999802
H    16.21999931   5.79999971  51.42000198
H     5.65000010   2.09000015  52.77999878
H     5.03999996   3.58000016  53.60000229
S    17.06999969   3.51000023  55.50000000
C    19.72999954   4.17000008  54.89999771
C    18.39999962   4.25000000  54.59000015
C    17.93000031   4.86999989  53.37999725
C    18.84000015   5.46999979  52.52999878
C    20.22999954   5.38000011  52.77999878
C    21.22999954   5.82000017  51.86000061
C    22.57999802   5.79999971  52.11000061
C    22.98000145   5.27999973  53.36999893
C    22.06000137   4.71000004  54.22000122
C    20.65999985   4.79999971  54.02999878
C    16.48999977   4.79999971  53.22000122
C    15.90999985   4.05000019  54.27000046
C    14.55000019   3.74000025  54.26000214
C    24.44999886   4.98000002  53.54999924
H    24.82114601   5.07278633  54.57065582
H    20.02000046   3.56999993  55.76000214
H    18.52000046   5.97000027  51.62000275
H    20.94000053   6.28000021  50.91999817
H    23.31999969   6.24000025  51.44000244
H    22.46000099   4.05999994  54.99000168
H    14.19999981   3.17000008  55.11000061
H    25.06000137   5.59999990  52.87000275
H    24.54000092   3.91000009  53.29000092
