96

S    16.98999977   8.67999935  58.70999908
C    19.69000053   8.82000065  57.98999786
C    18.38999939   8.50000000  57.63999939
C    18.07999992   7.95000029  56.36000061
C    19.14999962   7.77999973  55.48999786
C    20.48000145   8.10999966  55.83000183
C    21.56999969   7.82000017  54.95999908
C    22.88000107   8.05000019  55.31999969
C    23.15999985   8.69000053  56.56000137
C    22.14999962   8.92000008  57.47000122
C    20.79999924   8.65999985  57.11999893
C    16.63999939   7.76999998  56.25999832
C    15.90999985   8.10000038  57.43000031
C    14.52000046   8.19999981  57.47000122
C    24.56999969   9.06999969  56.95000076
H    25.03163528   8.26746655  57.52526855
H    19.92000008   9.25000000  58.95999908
H    19.11000061   7.09000015  54.65999985
H    21.31000137   7.36000013  54.01000214
H    23.65999985   7.72000027  54.65000153
H    22.30999947   9.26999950  58.47999954
H    14.14999962   8.27999973  58.48999786
H    25.10000038   9.26000023  56.00999832
H    24.54999924   9.89999962  57.67000198
S    13.40999985   6.94000006  53.93000031
C    10.70000076   6.84000015  54.54000092
C    11.97999954   7.11000013  54.98000336
C    12.30999947   7.72000027  56.23000336
C    11.31000042   7.82000017  57.16999817
C     9.96999931   7.57999992  56.77999878
C     8.90999985   7.86000013  57.70000076
C     7.62000036   7.64999962  57.29000092
C     7.34000015   7.02000046  56.04000092
C     8.34000015   6.69000053  55.14999771
C     9.65999985   7.11999989  55.45999908
C    13.75000000   7.92000008  56.32999802
C    14.50000000   7.53999996  55.19000244
C    15.88999939   7.44999981  55.12000275
C     5.96000004   6.48000002  55.77999878
H     5.39147234   7.11959362  55.10486984
H    10.53999996   6.42000008  53.55999756
H    11.56999969   8.31999969  58.09999847
H     9.15000057   8.17000008  58.70999908
H     6.80999994   7.68000031  58.01000214
H     8.14999962   6.15000010  54.22000122
H    16.27000046   7.17999983  54.13999939
H     5.42000008   6.32000017  56.72999954
H     6.05999994   5.51999998  55.26000214
S    17.28000069   9.13999939  52.60000229
C    20.02000046   9.04999924  51.97000122
C    18.71000099   8.82999992  51.59000015
C    18.35000038   8.23000050  50.34000015
C    19.31999969   7.95000029  49.38999939
C    20.63999939   8.32999992  49.72000122
C    21.71999931   8.14000034  48.81000137
C    23.03999901   8.39999962  49.10999680
C    23.42000008   8.90999985  50.38000107
C    22.39999962   9.17000008  51.26999664
C    21.04000092   8.82999992  51.00999832
C    16.92000008   8.00000000  50.20000076
C    16.21999931   8.47999954  51.32999802
C    14.85000038   8.65999985  51.37000275
C    24.87999916   9.09000015  50.73999786
H    25.22342300   8.41030884  51.51985550
H    20.32999992   9.43000031  52.93000031
H    19.11000061   7.48000050  48.43999863
H    21.48999977   7.86000013  47.78999710
H    23.64999962   8.39999962  48.20999908
H    22.59000015   9.61000061  52.23999786
H    14.40000057   9.27999973  52.14000320
H    25.46999931   8.97000027  49.81999969
H    25.07999802  10.13000011  51.03000259
S    13.68999958   7.57999992  47.72999573
C    10.95000076   7.57999992  48.47999954
C    12.27000046   7.82999992  48.76999664
C    12.64000034   8.30999947  50.06999969
C    11.64000034   8.60999966  50.98999786
C    10.29000092   8.27999973  50.72999954
C     9.26000023   8.21000004  51.70999908
C     7.94000053   7.92999983  51.43000031
C     7.57999992   7.62000036  50.08999634
C     8.56999969   7.46000004  49.15000153
C     9.92000008   7.83999968  49.40999985
C    14.07999992   8.27000046  50.27000046
C    14.78000069   7.88000011  49.09999847
C    16.15999985   7.73000002  49.05000305
C     6.15000010   7.17000008  49.88999939
H     5.78651142   7.58337927  48.94920349
H    10.60999966   7.23999977  47.50000000
H    11.89000034   8.78000069  52.02999878
H     9.50000000   8.30000019  52.76000214
H     7.30000019   7.81000042  52.29999924
H     8.27999973   6.94000006  48.23999786
H    16.67000008   7.53999996  48.11000061
H     5.58000040   7.48000050  50.77000046
H     6.14000034   6.07999992  49.73999786
