96

S    16.97000122   8.61999989  58.83999634
C    19.68000031   8.67000008  58.09999847
C    18.38000107   8.30999947  57.81999969
C    18.07999992   7.82999992  56.50000000
C    19.06999969   7.67000008  55.54999924
C    20.40999985   7.97999954  55.86000061
C    21.53000069   7.78999996  55.00999832
C    22.80999947   8.14999962  55.37000275
C    23.05000114   8.78999996  56.62000275
C    21.98999786   9.11999989  57.43000031
C    20.69000053   8.64999962  57.11000061
C    16.63999939   7.90999985  56.31000137
C    15.90999985   8.34000015  57.44999695
C    14.52000046   8.38000011  57.44999695
C    24.44999886   9.17000008  57.05999756
H    24.81257439   8.49461651  57.83491516
H    19.80999947   9.04999924  59.10999680
H    18.70000076   7.57999992  54.52999878
H    21.35000038   7.49000025  53.97999573
H    23.55999947   8.06999969  54.59000015
H    22.20999908   9.46000004  58.43999863
H    14.14999962   8.43000031  58.47000122
H    25.02000046   9.03999996  56.12999725
H    24.47000122  10.19999981  57.42000198
S    13.48000050   7.00000000  53.87000275
C    10.75000000   7.13999987  54.43999863
C    12.03999996   7.42999983  54.80999756
C    12.35999966   7.90999985  56.11999893
C    11.36000061   8.01000023  57.05999756
C    10.01000023   7.73000002  56.72000122
C     8.97999954   7.77999973  57.70000076
C     7.72000027   7.27999973  57.45999908
C     7.44999981   6.80000019  56.14999771
C     8.38000011   6.80000019  55.13999939
C     9.72000027   7.21000004  55.40999985
C    13.80000019   8.07999992  56.29000092
C    14.52999973   7.63999987  55.14999771
C    15.90999985   7.55999994  55.15999603
C     6.09000015   6.25999975  55.77999878
H     5.57092047   6.79330111  54.98360443
H    10.62000084   6.58999968  53.50999832
H    11.57999992   8.19999981  58.11000061
H     9.30999947   8.03999996  58.70999908
H     6.91999960   7.26000023  58.20000076
H     8.19000053   6.47000027  54.13000107
H    16.44000053   7.11999989  54.31999969
H     5.58000040   6.32999992  56.75000000
H     6.21999979   5.18000031  55.59999847
S    17.38999939   9.02000046  52.70000076
C    20.05000114   8.96000004  52.00000000
C    18.76000023   8.65999985  51.63000107
C    18.38000107   8.17000008  50.34000015
C    19.37999916   7.96000004  49.40999985
C    20.72000122   8.34000015  49.68999863
C    21.83000183   8.10000038  48.82999802
C    23.12000084   8.50000000  49.09000015
C    23.42000008   9.13999939  50.31999969
C    22.39000130   9.22999954  51.22000122
C    21.04999924   8.84000015  50.98999786
C    16.93000031   8.21000004  50.18000031
C    16.28000069   8.56000042  51.39999771
C    14.89999962   8.48999977  51.51000214
C    24.80999947   9.65999985  50.63000107
H    25.32049179   9.00061226  51.33193207
H    20.28000069   9.19999981  53.02999878
H    19.11000061   7.31999969  48.57999802
H    21.70999908   7.57000017  47.88999939
H    23.90999985   8.14000034  48.43000031
H    22.62000084   9.73999977  52.15999985
H    14.42999935   9.03999996  52.31999969
H    25.39999962   9.72000027  49.69999695
H    24.71999931  10.62999916  51.11999893
S    13.76999950   7.27999973  47.90000153
C    11.05000019   7.26999998  48.59000397
C    12.35000038   7.57000017  48.92000198
C    12.68000031   8.06999969  50.21999741
C    11.65999985   8.36999989  51.11000061
C    10.31999969   8.03999996  50.79999924
C     9.22999954   8.27000046  51.69000244
C     7.94000053   7.88999987  51.43000031
C     7.60999966   7.44999981  50.11000061
C     8.63000011   7.23999977  49.20999908
C    10.00000000   7.51999950  49.50000000
C    14.11999893   8.17000008  50.38999939
C    14.82999992   7.81000042  49.22000122
C    16.21999931   7.76000023  49.06999969
C     6.17999983   7.11999989  49.75999832
H     5.83037663   7.90486860  49.08929443
H    10.77000046   6.76000023  47.67000198
H    11.87000084   8.61999989  52.15000153
H     9.38000011   8.85000038  52.58999634
H     7.13999987   8.06999969  52.14000320
H     8.47999954   6.84999990  48.20999908
H    16.53000069   7.37999964  48.09999847
H     5.44000053   7.13999987  50.58000183
H     6.17999983   6.11999989  49.29999924
