96

S    16.46000099   8.14000034  58.80000305
C    19.17000008   8.34000015  58.13000107
C    17.88999939   8.01999950  57.75000000
C    17.54999924   7.44000006  56.47999573
C    18.57999992   7.23999977  55.56999969
C    19.90999985   7.62000036  55.84999847
C    21.01000023   7.50000000  54.94999695
C    22.27999878   7.73999977  55.38999939
C    22.56000137   8.36999989  56.63999939
C    21.52000046   8.47999954  57.52999878
C    20.19000053   8.14000034  57.15999985
C    16.11999893   7.27999973  56.29000092
C    15.40999985   7.62000036  57.47000122
C    14.02999973   7.78999996  57.43999863
C    23.98999977   8.64000034  57.05999756
H    24.44482231   7.91512918  57.73512650
H    19.37000084   8.69999981  59.13000107
H    18.35000038   6.71000004  54.65000153
H    20.76999855   7.18999958  53.94000244
H    23.09000015   7.36999989  54.77000427
H    21.67000008   8.97000027  58.48999786
H    13.60000038   8.17000008  58.36000061
H    24.43000031   8.69000053  56.05999756
H    23.94000053   9.63000011  57.54000092
S    12.92000008   6.67000008  53.83999634
C    10.17000008   6.67999983  54.36999893
C    11.44999981   6.94000006  54.79000092
C    11.84000015   7.32999992  56.11999893
C    10.84000015   7.59999990  57.02999878
C     9.51000023   7.26999998  56.66999817
C     8.43999958   7.36999989  57.60000229
C     7.13000011   7.18999958  57.22000122
C     6.78999996   6.56000042  56.00000000
C     7.82999992   6.32000017  55.13000107
C     9.17000008   6.72999954  55.38000107
C    13.27999973   7.39000034  56.32999802
C    14.02999973   7.00999975  55.18000031
C    15.40999985   6.86999989  55.14999771
C     5.36999989   6.21999979  55.61000061
H     4.92911911   6.88843203  54.87045670
H     9.88000011   6.30000019  53.40000153
H    11.06999969   8.05000019  57.98999786
H     8.64999962   7.71000004  58.61000061
H     6.34999990   7.42999983  57.93000031
H     7.67000008   5.84999990  54.16999817
H    16.01000023   6.67999983  54.26000214
H     4.78999996   6.28000021  56.53999710
H     5.35000038   5.13999987  55.38000107
S    16.75000000   8.80999947  53.02999878
C    19.40999985   9.03999996  52.28000259
C    18.17000008   8.50000000  52.01000214
C    17.84000015   7.95000029  50.73999786
C    18.86000061   7.96000004  49.79999924
C    20.20000076   8.30999947  50.08999634
C    21.25000000   8.15999985  49.13999939
C    22.53000069   8.50000000  49.50000000
C    22.77000046   9.13999939  50.75000000
C    21.80999947   9.26000023  51.72000122
C    20.48000145   8.89000034  51.37000275
C    16.39999962   7.88000011  50.54000092
C    15.70000076   8.38000011  51.66999817
C    14.30999947   8.42000008  51.65000153
C    24.17000008   9.56999969  51.11999893
H    24.60366631   8.99414635  51.93757248
H    19.52999878   9.53999996  53.23999786
H    18.68000031   7.30000019  48.95999908
H    20.97999954   7.67000008  48.20999908
H    23.36999893   8.34000015  48.81999969
H    21.90000153   9.61999989  52.74000168
H    13.76000023   8.84000015  52.50000000
H    24.76000023   9.39000034  50.21999741
H    24.20999908  10.67000008  51.17000198
S    13.23999977   7.36999989  47.95000076
C    10.52000046   7.23999977  48.63999939
C    11.80999947   7.57000017  48.99000168
C    12.13999939   7.96999979  50.33000183
C    11.09000015   8.28999996  51.17000198
C     9.76000023   7.90999985  50.86999893
C     8.65999985   8.15999985  51.72999954
C     7.36999989   7.78999996  51.42000198
C     7.09000015   7.21000004  50.14999771
C     8.13000011   6.98000002  49.27999878
C     9.48000050   7.30999994  49.59000015
C    13.57999992   7.99000025  50.54000092
C    14.28999996   7.68000031  49.34999847
C    15.67999935   7.69000006  49.34999847
C     5.68000031   6.83000040  49.75999832
H     5.26096058   7.49762249  49.00714493
H    10.34000015   6.77999973  47.67000198
H    11.26999950   8.76000023  52.12999725
H     8.86999989   8.64999962  52.68000031
H     6.69000053   7.92000008  52.25999832
H     7.88999987   6.70000029  48.26000214
H    16.20000076   7.39000034  48.44999695
H     5.00999975   6.78999996  50.63000107
H     5.68000031   5.79999971  49.40000153
