96

S    16.95999908   8.45000076  58.72000122
C    19.69000053   8.40999985  58.09999847
C    18.38999939   8.13000011  57.72999573
C    18.05999947   7.72000027  56.39999771
C    19.07999992   7.63999987  55.45999908
C    20.40999985   7.95000029  55.84999847
C    21.40999985   7.72000027  54.86999893
C    22.72000122   7.96999979  55.19000244
C    23.09000015   8.32999992  56.52000046
C    22.14999962   8.43999958  57.51999664
C    20.76999855   8.31999969  57.18999863
C    16.63999939   7.46000004  56.24000168
C    15.93999958   7.92000008  57.37999725
C    14.55999947   8.07999992  57.45999908
C    24.54999924   8.60999966  56.77999878
H    25.00508308   8.11936283  57.64039230
H    19.82999992   8.65999985  59.15000153
H    18.86999893   7.05999947  54.56999969
H    20.96999931   7.36000013  53.94000244
H    23.51000023   7.92999983  54.45000076
H    22.46000099   8.64999962  58.54000092
H    14.15999985   8.60000038  58.31999969
H    25.17999840   8.27000046  55.94999695
H    24.67000008   9.68000031  56.95999908
S    13.38999939   6.86999989  53.80000305
C    10.67000008   6.90000010  54.54999924
C    11.98999977   7.17000008  54.84000397
C    12.39999962   7.67000008  56.11999893
C    11.46000004   7.90000010  57.09999847
C    10.07999992   7.76000023  56.77000046
C     9.04999924   7.92000008  57.74000168
C     7.73999977   7.72000027  57.39999771
C     7.34000015   7.11000013  56.18000031
C     8.32999992   6.80999994  55.27999878
C     9.68000031   7.18999958  55.51000214
C    13.85000038   7.67000008  56.31999969
C    14.48999977   7.16000032  55.15999603
C    15.86999989   6.98999977  55.15999603
C     5.92999983   6.58999968  56.04999924
H     5.51017380   7.01694155  55.13919449
H    10.36999893   6.32999992  53.67000198
H    11.67000008   8.19000053  58.11999893
H     9.39999962   8.22000027  58.73000336
H     7.02000046   7.96000004  58.18000031
H     8.05000019   6.24000025  54.38999939
H    16.27000046   6.63000011  54.22000122
H     5.42999983   6.86999989  56.98999786
H     6.02999973   5.50000000  55.93000031
S    14.22000027   4.94000006  50.70000076
C    11.52999973   4.57999992  51.42000198
C    12.86000061   4.39000034  51.70000076
C    13.30000019   3.84999990  52.95000076
C    12.32999992   3.37000012  53.81000137
C    10.95000076   3.52999973  53.53000259
C     9.89999962   2.98000002  54.31999969
C     8.59000015   3.05999994  53.92000198
C     8.19000053   3.78999996  52.77000046
C     9.15000057   4.32000017  51.93999863
C    10.51000023   4.15000010  52.30999756
C    14.73999977   3.95000005  53.16999817
C    15.32999992   4.51000023  52.01000214
C    16.69999886   4.77999973  51.95999908
C     6.76999998   4.28000021  52.63000107
H     6.22149611   3.80273080  51.81793213
H    11.33999920   5.09999990  50.47999954
H    12.65999985   2.86000013  54.71000290
H    10.19999981   2.53999996  55.27000046
H     7.75000000   2.66000009  54.47999954
H     8.84000015   4.90000010  51.07999802
H    16.97999954   5.32999992  51.06999969
H     6.12999964   4.18000031  53.50999832
H     6.84000015   5.38000011  52.61000061
S    18.02000046   3.53999996  55.50000000
C    20.69000053   3.91999984  54.79999924
C    19.37000084   4.13000011  54.50000000
C    18.95000076   4.65999985  53.23999786
C    19.89999962   5.21000004  52.39999771
C    21.27000046   4.99000025  52.64999771
C    22.29999924   5.50000000  51.81000137
C    23.64999962   5.38999987  52.02000046
C    24.00000000   4.85000038  53.29000092
C    23.08000183   4.23999977  54.09999847
C    21.68000031   4.32999992  53.87000275
C    17.51000023   4.51999998  53.08000183
C    16.88999939   3.88000011  54.18000031
C    15.52000046   3.73000002  54.31000137
C    25.42000008   5.07000017  53.76999664
H    25.55482483   4.73648596  54.79892349
H    20.86999893   3.25999999  55.65000153
H    19.64999962   5.72000027  51.46999741
H    21.87999916   5.95000029  50.90999985
H    24.30000114   5.88999987  51.31000137
H    23.38999939   3.77999997  55.04000092
H    15.11000061   3.42999983  55.27000046
H    25.76999855   6.10000038  53.61999893
H    26.09999847   4.56999969  53.06999969
