96

S    17.30999947   8.23000050  58.74000168
C    19.92000008   8.25000000  57.95999908
C    18.67000008   7.73999977  57.70000076
C    18.27999878   7.17999983  56.44000244
C    19.27000046   7.09999990  55.47000122
C    20.58000183   7.55999994  55.70999908
C    21.63999939   7.23999977  54.80999756
C    22.95000076   7.55000019  55.06999969
C    23.25000000   8.23000050  56.27999878
C    22.29000092   8.48999977  57.23999786
C    20.95000076   8.07999992  57.00000000
C    16.82999992   7.13000011  56.27999878
C    16.22999954   7.68000031  57.44999695
C    14.86999989   7.95000029  57.35000229
C    24.68000031   8.64000034  56.55000305
H    25.15012550   8.02741146  57.31929779
H    20.12000084   8.89000034  58.81999969
H    19.04999924   6.61999989  54.52000046
H    21.28000069   6.77999973  53.88999939
H    23.75000000   7.46000004  54.34000015
H    22.52000046   8.93000031  58.20000076
H    14.40000057   8.42000008  58.20999908
H    25.26000023   8.52000046  55.61999893
H    24.68000031   9.63999939  56.98999786
S    13.66000080   6.65000010  53.77999878
C    10.95999908   6.89000034  54.41999817
C    12.27000046   7.09999990  54.77000427
C    12.71000004   7.63000011  56.03000259
C    11.68000031   7.79999971  56.93000031
C    10.31000042   7.59999990  56.65999985
C     9.26000023   7.77999973  57.62000275
C     7.94000053   7.57000017  57.32999802
C     7.62000036   7.03999996  56.05999756
C     8.56000042   6.84999990  55.06999969
C     9.92999935   7.09000015  55.37000275
C    14.15999985   7.55000019  56.20999908
C    14.81999969   7.03000021  55.06999969
C    16.20000076   6.93000031  55.05000305
C     6.21000004   6.54999971  55.80999756
H     5.61723518   7.22132444  55.18866730
H    10.71000004   6.47000027  53.43999863
H    11.90999985   8.05999947  57.95999908
H     9.53999996   8.05999947  58.62999725
H     7.20000029   7.51999950  58.13000107
H     8.28999996   6.74000025  54.02000046
H    16.75000000   6.61000013  54.16999817
H     5.68000031   6.34000015  56.75000000
H     6.26999950   5.58000040  55.30000305
S    17.67000008   8.63000011  52.68000031
C    20.39999962   8.64000034  51.93999863
C    19.07999992   8.36000061  51.63999939
C    18.68999863   8.00000000  50.31999969
C    19.70000076   7.72000027  49.41999817
C    21.04999924   8.10000038  49.65000153
C    22.11000061   7.92000008  48.72000122
C    23.44000053   8.02999973  49.02999878
C    23.78999901   8.56000042  50.30000305
C    22.80999947   8.75000000  51.24000168
C    21.42999840   8.55000019  50.96000290
C    17.23999977   7.92999983  50.19000244
C    16.53000069   8.30999947  51.36000061
C    15.14999962   8.46000004  51.42000198
C    25.25000000   8.82000065  50.59999847
H    25.66247177   8.16573524  51.36804962
H    20.66999817   8.92000008  52.95000076
H    19.47000122   7.11999989  48.54999924
H    21.83000183   7.31999969  47.84999847
H    24.23999977   7.69999981  48.36999893
H    23.01000214   8.98999977  52.28000259
H    14.57999992   8.75000000  52.29999924
H    25.85000038   8.73999977  49.68000031
H    25.38000107   9.84000015  50.98999786
S    14.04999924   7.23999977  47.81999969
C    11.31999969   7.25000000  48.52000427
C    12.64000034   7.48000050  48.86000061
C    12.97999954   7.90999985  50.18000031
C    11.98999977   8.23999977  51.09000397
C    10.62999916   8.05999947  50.72000122
C     9.56999969   8.27999973  51.65000153
C     8.23999977   8.09000015  51.31999969
C     7.94000053   7.42999983  50.11000061
C     8.93999958   7.11999989  49.20999908
C    10.26999950   7.57000017  49.41999817
C    14.42999935   8.00000000  50.31000137
C    15.14999962   7.55000019  49.18000031
C    16.53000069   7.46000004  49.08000183
C     6.52999973   6.98000002  49.77000427
H     6.13025141   7.56534576  48.94195175
H    11.05999947   6.89000034  47.52999878
H    12.18999958   8.63000011  52.08000183
H     9.89000034   8.57999992  52.63999939
H     7.46999979   8.22000027  52.08000183
H     8.76999950   6.61000013  48.27000046
H    16.98999977   7.07000017  48.16999817
H     5.80999947   6.91999960  50.59000015
H     6.58999968   5.93999958  49.40999985
