96

S    16.72999954   8.23000050  58.79000092
C    19.43000031   8.32999992  58.09999847
C    18.13999939   8.00000000  57.76000214
C    17.71999931   7.59999990  56.45000076
C    18.72999954   7.48000050  55.50000000
C    20.06999969   7.75000000  55.86000061
C    21.12999916   7.57999992  54.93000031
C    22.40999985   7.96999979  55.20000076
C    22.77000046   8.46000004  56.49000168
C    21.78999901   8.73000050  57.41000366
C    20.48000145   8.23999977  57.15000153
C    16.28000069   7.55000019  56.26999664
C    15.60999966   8.02999973  57.42000198
C    14.25000000   8.27000046  57.51999664
C    24.18000031   8.93000031  56.77000046
H    24.60542870   8.19258785  57.45068741
H    19.52999878   8.86999989  59.03999710
H    18.56999969   6.98000002  54.54000092
H    20.93000031   7.50999975  53.86000061
H    23.09999847   7.99000025  54.36000061
H    21.97999954   9.25000000  58.34999847
H    13.89999962   8.52999973  58.50999832
H    24.75000000   9.11000061  55.84999847
H    24.11000061   9.86999989  57.32999802
S    12.94999981   7.17000008  53.99000168
C    10.26999950   6.94000006  54.68999863
C    11.54999924   7.28999996  55.06999969
C    11.97000027   7.78999996  56.33999634
C    10.98000050   7.97999954  57.29999924
C     9.64999962   7.59000015  56.98999786
C     8.65999985   7.69000006  58.01000214
C     7.35000038   7.36000013  57.77999878
C     6.97000027   6.96000004  56.46999741
C     7.90999985   6.81999969  55.47000122
C     9.28999996   7.09999990  55.68999863
C    13.40999985   7.96999979  56.44000244
C    14.11000061   7.53000021  55.28999710
C    15.47000027   7.30999994  55.14999771
C     5.55999994   6.57000017  56.12999725
H     5.20546007   7.01672077  55.20110321
H    10.01000023   6.60000038  53.68999863
H    11.25000000   8.38000011  58.27000046
H     8.90999985   7.92999983  59.03999710
H     6.53999996   7.25000000  58.50999832
H     7.53999996   6.38999987  54.54000092
H    15.81999969   7.03000021  54.15999985
H     4.94999981   6.89000034  56.98999786
H     5.59000015   5.46999979  56.13999939
S    13.60999966   5.26000023  51.04999924
C    10.98999977   4.84000015  51.88999939
C    12.32999992   4.56999969  52.06999969
C    12.88000011   3.88999987  53.20999908
C    11.98999977   3.32999992  54.09999847
C    10.59999943   3.51999998  53.94000244
C     9.59000015   2.84999990  54.68999863
C     8.25000000   2.89000010  54.38999939
C     7.76000023   3.65999985  53.29999924
C     8.69000053   4.44999981  52.65999603
C    10.08999920   4.30000019  52.84000015
C    14.32999992   4.01999998  53.29999924
C    14.85000038   4.76000023  52.21000290
C    16.20000076   5.10999966  52.16999817
C     6.28000021   3.93000007  53.13999939
H     5.93193197   3.49669099  52.20234680
H    10.64000034   5.46999979  51.06999969
H    12.42000008   2.73999977  54.91000366
H     9.98000050   2.16999984  55.44000244
H     7.73999977   2.23000002  55.08999634
H     8.43999958   5.35000038  52.09999847
H    16.59000015   5.64000034  51.31000137
H     5.82000017   3.45999980  54.02000046
H     6.09000015   5.00999975  53.22999954
S    17.64000130   3.45999980  55.54999924
C    20.26000023   4.23000002  54.89999771
C    18.90999985   4.26999998  54.61999893
C    18.47999954   4.78999996  53.36000061
C    19.38999939   5.23000002  52.42000198
C    20.78000069   5.14999962  52.68000031
C    21.76000214   5.66999960  51.79000092
C    23.09999847   5.63000011  52.11000061
C    23.54000092   5.26000023  53.40999985
C    22.62000084   4.59999990  54.20000076
C    21.22999954   4.56999969  53.92000198
C    17.02999878   4.72000027  53.22000122
C    16.48999977   3.97000027  54.29999924
C    15.15999985   3.55999994  54.33000183
C    24.93000031   5.64000034  53.86000061
H    25.38695526   4.93314838  54.55257034
H    20.79000092   3.79999995  55.73999786
H    19.15999985   5.84999990  51.55000305
H    21.50000000   6.07999992  50.81999969
H    23.69999886   6.24000025  51.44000244
H    22.78000069   4.32000017  55.24000168
H    14.82999992   2.86000013  55.08999634
H    24.93000031   6.53999996  54.47999954
H    25.52000046   5.84000015  52.95999908
