96

S    17.02000046   8.61999989  59.00000000
C    19.77000046   8.56000042  58.36000061
C    18.45999908   8.25000000  58.04000092
C    18.13999939   7.60999966  56.79999924
C    19.18000031   7.40000010  55.91999817
C    20.53999901   7.63000011  56.23000336
C    21.64999962   7.35000038  55.38000107
C    22.89999962   7.49000025  55.93999863
C    23.22999954   8.27999973  57.06999969
C    22.18000031   8.46000004  57.94000244
C    20.85000038   8.19999981  57.51999664
C    16.69999886   7.49000025  56.65999985
C    15.93999958   7.97999954  57.75000000
C    14.55999947   8.15999985  57.77999878
C    24.67000008   8.67999935  57.32999802
H    25.15337181   8.07578564  58.09770584
H    20.17999840   8.89999962  59.29999924
H    19.02000046   7.03999996  54.89999771
H    21.42999840   6.74000025  54.51000214
H    23.75000000   7.07000017  55.40999985
H    22.20999908   8.86999989  58.95000076
H    14.06999969   8.46000004  58.70999908
H    25.10999870   8.65999985  56.32999802
H    24.71999931   9.73999977  57.62000275
S    13.50999928   7.13000011  54.09999847
C    10.77000046   6.96000004  54.78000259
C    12.05999947   7.26000023  55.12000275
C    12.39999962   7.68000031  56.45000076
C    11.36999989   7.96999979  57.32999802
C    10.01000023   7.77999973  56.97999954
C     8.92000008   7.92000008  57.88999939
C     7.60999966   7.69000006  57.56000137
C     7.39000034   7.13000011  56.26999664
C     8.36999989   6.91999960  55.33000183
C     9.71000004   7.25000000  55.68000031
C    13.83999920   7.76999998  56.63999939
C    14.55999947   7.28999996  55.52000046
C    15.93999958   7.11000013  55.54000092
C     5.97000027   6.67000008  56.00999832
H     5.64202785   7.14056921  55.08312225
H    10.57000065   6.52999973  53.80000305
H    11.56999969   8.34999943  58.33000183
H     9.15000057   7.99000025  58.94000244
H     6.80000019   7.64999962  58.29000092
H     8.19999981   6.51999998  54.34000015
H    16.47999954   6.77999973  54.65999985
H     5.28999996   6.94000006  56.83000183
H     5.78999996   5.59000015  55.98999786
S    13.92000008   4.96000004  51.10000229
C    11.26000023   4.48999977  51.70000076
C    12.57999992   4.28000021  52.04000092
C    13.05999947   3.65999985  53.23999786
C    12.06999969   3.15000010  54.06999969
C    10.69000053   3.26999998  53.75999832
C     9.63000011   2.84000015  54.61000061
C     8.30000019   3.08999991  54.33000183
C     7.90999985   3.84000015  53.18999863
C     8.89999962   4.26999998  52.34000397
C    10.27999973   4.00000000  52.60000229
C    14.47000027   3.86999989  53.48999786
C    15.05000019   4.59000015  52.41000366
C    16.40999985   4.86999989  52.41000366
C     6.47000027   4.05999994  52.78999710
H     6.12909317   3.30006170  52.08687973
H    11.00999928   5.17000008  50.89000320
H    12.30000019   2.61999989  54.99000168
H     9.92000008   2.36000013  55.52999878
H     7.59999990   2.61999989  55.00999832
H     8.69000053   4.69000006  51.36000061
H    16.76000023   5.36999989  51.51000214
H     5.92999983   4.13999987  53.74000168
H     6.25000000   5.01999950  52.30999756
S    17.81999969   3.22000003  55.72999954
C    20.45999908   3.45999980  54.86999893
C    19.13999939   3.78999996  54.68999863
C    18.68999863   4.55000019  53.55999756
C    19.59000015   5.05000019  52.63000107
C    20.95000076   4.69999981  52.78999710
C    21.88999939   5.31000042  51.91999817
C    23.21000099   5.22000027  52.28000259
C    23.71999931   4.63000011  53.47000122
C    22.79999924   3.97000027  54.23999786
C    21.40999985   4.00999975  53.96999741
C    17.23999977   4.50000000  53.47000122
C    16.62999916   3.81000018  54.54999924
C    15.26999950   3.51999998  54.59000015
C    25.17999840   4.82999992  53.81000137
H    25.49304390   4.51695681  54.80604553
H    20.71000099   2.86999989  55.73999786
H    19.26000023   5.71000004  51.83000183
H    21.57999992   5.97000027  51.11000061
H    24.04000092   5.55000019  51.65999985
H    23.12000084   3.42000008  55.13000107
H    14.80000019   2.86999989  55.31999969
H    25.43000031   5.88999987  53.66000366
H    25.81000137   4.26000023  53.11000061
