96

S    16.57999992   7.85000038  58.76999664
C    19.31999969   7.88999987  58.15000153
C    18.02999878   7.65999985  57.75000000
C    17.60000038   7.27999973  56.43000031
C    18.55999947   7.11999989  55.45000076
C    19.90999985   7.30999994  55.80999756
C    20.97999954   7.11999989  54.88999939
C    22.30999947   7.30000019  55.21999741
C    22.65999985   7.88999987  56.45999908
C    21.67000008   8.01000023  57.39999771
C    20.29000092   7.73999977  57.12999725
C    16.17000008   7.37999964  56.20999908
C    15.47999954   7.76999998  57.37999725
C    14.11000061   7.97999954  57.47000122
C    24.05999947   8.43000031  56.65999985
H    24.61408997   7.70542002  57.25671387
H    19.67000008   8.23999977  59.12000275
H    18.27000046   6.88000011  54.43000031
H    20.69000053   6.86999989  53.88000107
H    22.96999931   7.34000015  54.36000061
H    21.87000084   8.46000004  58.36999893
H    13.55999947   8.25000000  58.36999893
H    24.56000137   8.60999966  55.70000076
H    23.95999908   9.42000008  57.11000061
S    12.86000061   6.93000031  53.82999802
C    10.17000008   6.90000010  54.55999756
C    11.47999954   7.05999947  54.93999863
C    11.92000008   7.32999992  56.26999664
C    10.92000008   7.26999998  57.23999786
C     9.53999996   7.16000032  56.95000076
C     8.46000004   7.16000032  57.87000275
C     7.16000032   6.80000019  57.58999634
C     6.85999966   6.46000004  56.25000000
C     7.86000013   6.51000023  55.31000137
C     9.17000008   6.98999977  55.56999969
C    13.35000038   7.53000021  56.38000107
C    14.00000000   7.18999958  55.17000198
C    15.38000011   7.03999996  55.10000229
C     5.42000008   6.30999994  55.79000092
H     5.25637054   6.88625956  54.87936783
H     9.94999981   6.44999981  53.59000397
H    11.23000050   7.35000038  58.27999878
H     8.69999981   7.36000013  58.90999603
H     6.35999966   6.72999954  58.31999969
H     7.60999966   6.17000008  54.31000137
H    15.88000107   6.71999979  54.19000244
H     4.67999983   6.48999977  56.58000183
H     5.26999998   5.31000042  55.37000275
S    13.81000042   4.97000027  51.05999756
C    11.18999958   4.23000002  51.60999680
C    12.51999950   4.13000011  51.93999863
C    12.94000053   3.61999989  53.20999908
C    11.92999935   3.12000012  54.02000046
C    10.54999924   3.19999981  53.70999908
C     9.57999992   2.72000027  54.64000320
C     8.25000000   3.00000000  54.45000076
C     7.83999968   3.70000005  53.27999878
C     8.76000023   4.00000000  52.29999924
C    10.14999962   3.75999975  52.44999695
C    14.37999916   3.77999997  53.34999847
C    14.98999977   4.46000004  52.27000427
C    16.31999969   4.85000038  52.31999969
C     6.38000011   3.98999977  53.04999924
H     6.00342178   3.63473773  52.09079361
H    10.88999939   4.81999969  50.73999786
H    12.15000057   2.44000006  54.82999802
H     9.96000004   2.20000005  55.52000046
H     7.55000019   2.63000011  55.20000076
H     8.50000000   4.51000023  51.37000275
H    16.86000061   5.27999973  51.47999573
H     5.89999962   3.56999993  53.94000244
H     6.25999975   5.07999992  52.95000076
S    17.72999954   3.17000008  55.63999939
C    20.40999985   3.44000006  54.91000366
C    19.09000015   3.61000013  54.59000015
C    18.55999947   4.21000004  53.40000153
C    19.45000076   4.65999985  52.44999695
C    20.82999992   4.46999979  52.74000168
C    21.76000214   4.96000004  51.77999878
C    23.09999847   4.88999987  52.04999924
C    23.65999985   4.42999983  53.27000046
C    22.76000023   3.86999989  54.15000153
C    21.35000038   3.86000013  53.93000031
C    17.10000038   4.28000021  53.34000015
C    16.52000046   3.53999996  54.40000153
C    15.14999962   3.28000021  54.40999985
C    25.12000084   4.59999990  53.62999725
H    25.42395973   4.30311012  54.63377380
H    20.73999786   2.84999990  55.76000214
H    19.22000122   5.27999973  51.59000015
H    21.31000137   5.36000013  50.86999893
H    23.69999886   5.19000006  51.19999695
H    23.15000153   3.50000000  55.08999634
H    14.67000008   2.75999999  55.24000168
H    25.30999947   5.66999960  53.59000397
H    25.82999992   4.13999987  52.94000244
