96

S    16.92000008   8.45000076  59.01000214
C    19.67000008   8.53999996  58.26000214
C    18.36000061   8.23000050  57.98999786
C    18.01000023   7.88999987  56.63999939
C    19.01000023   7.67000008  55.70999908
C    20.36999893   7.90000010  56.00999832
C    21.44000053   7.81000042  55.07999802
C    22.72999954   8.21000004  55.34999847
C    23.03999901   8.73999977  56.63000107
C    22.06000137   8.76999950  57.60000229
C    20.71000099   8.43999958  57.29999924
C    16.57999992   7.67000008  56.47999573
C    15.86999989   8.13000011  57.62000275
C    14.47999954   8.17000008  57.62000275
C    24.44000053   9.13999939  57.02000046
H    24.83888626   8.54166985  57.83914185
H    19.93999863   8.90999985  59.23999786
H    18.76000023   7.30999994  54.72000122
H    21.31000137   7.39000034  54.09000015
H    23.51000023   8.10000038  54.61000061
H    22.29000092   9.15000057  58.59000397
H    13.90999985   8.59000015  58.44999695
H    25.06000137   9.02000046  56.11999893
H    24.41999817  10.19999981  57.29999924
S    13.45000076   7.17999983  53.92000198
C    10.72000027   7.09999990  54.61000061
C    12.02999973   7.31999969  54.97000122
C    12.35999966   7.69999981  56.31000137
C    11.38000011   7.86000013  57.28000259
C    10.03000069   7.64999962  56.90999985
C     8.97000027   7.71000004  57.85999680
C     7.65999985   7.46000004  57.51999664
C     7.37999964   6.96000004  56.22000122
C     8.38000011   6.71000004  55.31999969
C     9.70000076   7.17000008  55.59999847
C    13.80000019   7.73000002  56.47999573
C    14.53999996   7.42000008  55.31000137
C    15.92000008   7.27999973  55.30000305
C     6.01999998   6.38000011  55.90000153
H     5.45267773   6.91895628  55.14120483
H    10.53999996   6.53999996  53.69999695
H    11.61000061   8.13000011  58.30999756
H     9.26999950   7.92999983  58.88000107
H     6.84999990   7.68000031  58.20999908
H     8.13000011   6.21999979  54.38000107
H    16.52000046   7.04999971  54.43000031
H     5.44000053   6.19000006  56.81000137
H     6.21999979   5.33999968  55.59999847
S    13.66000080   5.00000000  50.93000031
C    11.00999928   4.59000015  51.65999985
C    12.34000015   4.40000010  51.95999908
C    12.81000042   3.78999996  53.16999817
C    11.87999916   3.35999990  54.09999847
C    10.51000023   3.54999995  53.80000305
C     9.50000000   2.92000008  54.59000015
C     8.14999962   3.01999998  54.40999985
C     7.72000027   3.73000002  53.25000000
C     8.64000034   4.13000011  52.30999756
C    10.03999901   4.13000011  52.56999969
C    14.27000046   3.84000015  53.22999954
C    14.85000038   4.61000013  52.18999863
C    16.18000031   4.99000025  52.18000031
C     6.25999975   4.05000019  53.04000092
H     5.81920385   3.69451928  52.10863876
H    10.69000053   5.13999987  50.77999878
H    12.23000050   2.84999990  54.99000168
H     9.85000038   2.39999986  55.47999954
H     7.53000021   2.50000000  55.12000275
H     8.26000023   4.72000027  51.47999573
H    16.61000061   5.59999990  51.38000107
H     5.64000034   3.67000008  53.86000061
H     6.05999994   5.13000011  53.04999924
S    17.64999962   3.19000006  55.45999908
C    20.27000046   3.91999984  54.81999969
C    18.93000031   3.98000002  54.52999878
C    18.38999939   4.69999981  53.40999985
C    19.27000046   5.40999985  52.62000275
C    20.66999817   5.27999973  52.81999969
C    21.61999893   5.84999990  51.91999817
C    22.98000145   5.69000006  52.02000046
C    23.52000046   5.07000017  53.18000031
C    22.60999870   4.48000002  54.02000046
C    21.18999863   4.51000023  53.90999603
C    16.95999908   4.51000023  53.23999786
C    16.43000031   3.72000003  54.29999924
C    15.08999920   3.35000014  54.25000000
C    24.99000168   4.73000002  53.33000183
H    25.43806076   5.12827444  54.24034119
H    20.63999939   3.38000011  55.68999863
H    18.86000061   5.96000004  51.77000046
H    21.24000168   6.34000015  51.03000259
H    23.57000160   6.17000008  51.24000168
H    23.01000214   3.86999989  54.82999802
H    14.65999985   2.73000002  55.02999878
H    25.51000214   5.03000021  52.41000366
H    25.12000084   3.63999987  53.27000046
