96

S    16.62999916   8.75000000  59.06999969
C    19.31999969   9.04999924  58.33000183
C    18.04999924   8.61999989  58.02000046
C    17.73999977   8.09000015  56.72000122
C    18.77000046   7.99000025  55.80999756
C    20.09000015   8.38999939  56.11999893
C    21.21999931   8.10000038  55.30000305
C    22.50999832   8.36000061  55.68000031
C    22.77000046   9.02999973  56.90000153
C    21.73000145   9.30000019  57.76000214
C    20.39999962   8.93999958  57.41000366
C    16.31000137   7.95000029  56.51000214
C    15.60999966   8.34000015  57.68000031
C    14.22000027   8.39999962  57.71999741
C    24.17000008   9.50000000  57.22999954
H    24.75204849   8.90375614  57.93271637
H    19.50000000   9.32999992  59.36000061
H    18.52000046   7.37999964  54.93999863
H    21.00000000   7.60999966  54.34999847
H    23.31000137   8.15999985  54.97000122
H    21.81999969   9.78999996  58.72000122
H    13.69999981   8.65999985  58.63999939
H    24.77000046   9.64999962  56.31999969
H    24.04999924  10.53999996  57.56000137
S    13.07999992   7.57999992  54.00000000
C    10.38000011   7.30000019  54.68000031
C    11.67000008   7.57000017  55.06999969
C    12.02999973   7.94000053  56.39999771
C    11.05999947   7.92999983  57.37999725
C     9.72000027   7.68000031  57.00000000
C     8.64999962   7.90999985  57.90000153
C     7.34000015   7.92000008  57.50000000
C     7.00999975   7.40999985  56.22000122
C     7.97999954   7.16000032  55.27999878
C     9.34000015   7.36000013  55.63999939
C    13.47000027   8.14000034  56.56999969
C    14.18000031   7.81000042  55.38000107
C    15.54999924   7.60999966  55.38000107
C     5.55000019   7.09999990  55.97000122
H     5.10965347   7.47642517  55.04669189
H    10.25000000   6.93000031  53.66000366
H    11.31000042   8.17000008  58.41999817
H     8.97999954   8.19000053  58.89999771
H     6.50000000   7.97999954  58.18999863
H     7.73000002   6.90999985  54.25000000
H    15.98999977   7.31999969  54.43000031
H     5.00999975   7.53000021  56.83000183
H     5.38999987   6.01999998  56.02000427
S    13.94999981   5.55999994  51.14999771
C    11.23000050   5.05000019  51.63000107
C    12.55000019   4.82999992  51.95999908
C    12.96000004   4.23999977  53.20000076
C    12.05000019   3.58999991  54.01000214
C    10.67000008   3.68000007  53.68999863
C     9.59000015   3.26999998  54.52000046
C     8.28999996   3.63999987  54.27000046
C     8.00000000   4.50000000  53.16999817
C     8.98999977   4.97000027  52.34000397
C    10.31999969   4.51999998  52.57999802
C    14.39000034   4.32999992  53.43000031
C    15.07999992   5.07000017  52.43999863
C    16.44000053   5.32999992  52.41000366
C     6.53999996   4.78999996  52.90000153
H     6.03757334   4.30172634  52.06498337
H    10.95000076   5.77000046  50.86000061
H    12.43999958   3.28999996  54.98000336
H     9.85000038   2.73000002  55.43000031
H     7.53999996   3.38999987  55.01999664
H     8.69000053   5.52999973  51.45999908
H    16.82999992   5.97000027  51.62000275
H     6.05999994   4.30000019  53.75000000
H     6.42000008   5.88000011  52.81000137
S    17.57999992   3.68999982  55.81999969
C    20.26000023   4.26000023  55.26000214
C    18.93000031   4.44000006  54.93999863
C    18.63999939   5.01999950  53.67000198
C    19.62000084   5.58000040  52.88000107
C    20.98999977   5.46000004  53.22999954
C    22.04999924   6.01000023  52.45999908
C    23.34000015   5.55000019  52.63000107
C    23.65999985   4.76000023  53.75999832
C    22.67999840   4.53999996  54.71000290
C    21.30000114   4.72000027  54.41999817
C    17.20000076   4.86999989  53.50000000
C    16.47999954   4.26999998  54.55999756
C    15.11999989   4.00000000  54.58000183
C    25.09000015   4.30999994  53.92000198
H    25.46751022   4.77298307  54.83172226
H    20.53999901   3.63999987  56.10000229
H    19.34999847   6.11000013  51.97000122
H    21.71999931   6.56000042  51.58000183
H    24.05999947   5.66999960  51.83000183
H    22.98000145   4.09000015  55.65999985
H    14.59000015   3.38000011  55.31000137
H    25.62000084   4.69999981  53.04999924
H    25.20000076   3.22000003  53.97999573
