96

S    16.87000084   8.93000031  58.70999908
C    19.55000114   9.11999989  58.02999878
C    18.30000114   8.64999962  57.69000244
C    17.97000122   8.02999973  56.45000076
C    19.02000046   7.78999996  55.58000183
C    20.34000015   8.13000011  55.94999695
C    21.44000053   7.75000000  55.12000275
C    22.72999954   7.99000025  55.52000046
C    23.02000046   8.73000050  56.69000244
C    21.97999954   9.19000053  57.47000122
C    20.62999916   8.86999989  57.15000153
C    16.52000046   7.94000053  56.31000137
C    15.77999973   8.34000015  57.44999695
C    14.39000034   8.30000019  57.49000168
C    24.47000122   9.07999992  56.93999863
H    24.86738777   8.56197739  57.81283188
H    19.63000107   9.63999939  58.97999573
H    18.81000137   7.25000000  54.65999985
H    21.11999893   7.13999987  54.27999878
H    23.59999847   7.71000004  54.93000031
H    22.29999924   9.77999973  58.33000183
H    13.76999950   8.56999969  58.34000015
H    24.93999863   8.82999992  55.97999954
H    24.44999886  10.15999985  57.09000015
S    13.31999969   7.07000017  53.89999771
C    10.60999966   7.23000002  54.40999985
C    11.89000034   7.35000038  54.91000366
C    12.20000076   7.72000027  56.25999832
C    11.11999989   7.81000042  57.11000061
C     9.80000019   7.57000017  56.68000031
C     8.71000004   7.65999985  57.58999634
C     7.42999983   7.39000034  57.18000031
C     7.13000011   7.18999958  55.79999924
C     8.15999985   7.14999962  54.88999939
C     9.52000046   7.23999977  55.30000305
C    13.64999962   7.85000038  56.38999939
C    14.40000057   7.50999975  55.22999573
C    15.78999996   7.51999950  55.19000244
C     5.68000031   7.00000000  55.41999817
H     5.24669075   7.59668827  54.61731339
H    10.52000046   7.00000000  53.34999847
H    11.23000050   8.00000000  58.18000031
H     9.03999996   7.85000038  58.61000061
H     6.57999992   7.46999979  57.84999847
H     7.94000053   7.23999977  53.82999802
H    16.28000069   7.27999973  54.25000000
H     5.00999975   7.11000013  56.27999878
H     5.60999966   5.92000008  55.26000214
S    17.61999893   9.07999992  52.81999969
C    20.36999893   9.06000042  52.21000290
C    19.07999992   8.76999950  51.84999847
C    18.72999954   8.30000019  50.54000092
C    19.69000053   8.07999992  49.56999969
C    21.02999878   8.42000008  49.86000061
C    22.06999969   8.18000031  48.92000198
C    23.38000107   8.43999958  49.25000000
C    23.67000198   9.06000042  50.48999786
C    22.70000076   9.21000004  51.45000076
C    21.32999802   8.90999985  51.18000031
C    17.29999924   8.03999996  50.41999817
C    16.54999924   8.43999958  51.56000137
C    15.17000008   8.53999996  51.59000015
C    25.06000137   9.50000000  50.91999817
H    25.50744057   8.86790276  51.68703842
H    20.61000061   9.59999943  53.11999893
H    19.40999985   7.57999992  48.63999939
H    21.75000000   7.83999968  47.94000244
H    24.17000008   8.14000034  48.55999756
H    22.81999969   9.53999996  52.48000336
H    14.59000015   8.80000019  52.47000122
H    25.79999924   9.52999973  50.12000275
H    24.96999931  10.53999996  51.26999664
S    14.18000031   7.53000021  47.87000275
C    11.43000031   7.50000000  48.40999985
C    12.71999931   7.73000002  48.85000229
C    13.04999924   8.11999989  50.18000031
C    11.97000027   8.38000011  51.00999832
C    10.60999966   8.23999977  50.61999893
C     9.52000046   8.43000031  51.51000214
C     8.23999977   8.21000004  51.05999756
C     8.00000000   7.67000008  49.77000427
C     9.02000046   7.49000025  48.86000061
C    10.34999943   7.78999996  49.27999878
C    14.47999954   8.19999981  50.41999817
C    15.22999954   7.83999968  49.27000046
C    16.61000061   7.69999981  49.25000000
C     6.60000038   7.21000004  49.43000031
H     6.03108549   8.07759476  49.09576035
H    11.17000008   7.04999971  47.45999908
H    12.18999958   8.51000023  52.05999756
H     9.70000076   8.69000053  52.55000305
H     7.44000006   8.61999989  51.68000031
H     8.85000038   7.17000008  47.84000015
H    17.12000084   7.49000025  48.30999756
H     6.01999998   6.67999983  50.20000076
H     6.63999987   6.47000027  48.62999725
