96

S    16.95000076   8.53999996  58.87000275
C    19.62000084   8.82999992  58.13000107
C    18.35000038   8.43000031  57.77999878
C    18.01000023   7.76999998  56.56000137
C    19.04000092   7.57000017  55.65999985
C    20.36999893   7.97999954  55.90999985
C    21.40000153   7.53999996  55.02999878
C    22.69000053   7.81000042  55.40999985
C    22.95999908   8.23000050  56.73999786
C    22.00000000   8.43999958  57.70999908
C    20.65999985   8.43000031  57.25000000
C    16.59000015   7.48000050  56.42000198
C    15.90000057   7.94000053  57.56999969
C    14.52999973   8.17000008  57.55000305
C    24.37000084   8.67000008  57.05999756
H    24.76107979   7.99450111  57.82082367
H    19.95000076   9.22999954  59.09000015
H    18.81000137   6.98000002  54.77000427
H    21.11000061   7.02000046  54.12000275
H    23.52999878   7.62000036  54.73999786
H    22.06999969   8.67000008  58.76999664
H    14.09000015   8.61999989  58.43000031
H    24.94999886   8.73000050  56.12999725
H    24.18000031   9.63000011  57.55000305
S    13.38999939   6.94999981  54.00000000
C    10.67000008   7.02000046  54.59999847
C    11.95000076   7.40999985  54.92000198
C    12.30000019   7.88000011  56.23000336
C    11.32999992   8.03999996  57.19999695
C     9.98000050   7.75000000  56.86999893
C     8.86999989   8.00000000  57.71999741
C     7.55000019   7.73999977  57.41000366
C     7.28999996   7.04999971  56.18999863
C     8.30999947   6.89000034  55.27999878
C     9.67000008   7.17000008  55.59000015
C    13.73999977   7.81000042  56.45000076
C    14.46000004   7.18999958  55.38999939
C    15.84000015   7.11999989  55.28999710
C     5.86000013   6.67999983  55.86000061
H     5.39135361   7.37586880  55.16413116
H    10.39999962   6.47000027  53.69999695
H    11.51000023   8.30999947  58.23999786
H     9.22999954   8.19999981  58.72000122
H     6.67000008   7.97999954  58.00000000
H     8.06999969   6.57999992  54.27000046
H    16.38000107   6.86999989  54.38000107
H     5.25000000   6.71999979  56.77000046
H     5.84999990   5.73000002  55.31999969
S    17.25000000   8.86999989  52.88999939
C    19.93999863   8.85999966  52.25999832
C    18.65999985   8.56000042  51.86999893
C    18.30999947   8.07999992  50.56000137
C    19.31999969   7.92000008  49.62999725
C    20.65000153   8.25000000  49.98000336
C    21.70000076   8.06999969  49.03999710
C    23.02999878   8.27999973  49.31999969
C    23.36000061   8.80999947  50.59999847
C    22.37999916   8.82999992  51.56999969
C    20.98999977   8.67999935  51.31999969
C    16.86000061   8.05999947  50.41999817
C    16.14999962   8.60000038  51.52000046
C    14.77000046   8.78999996  51.46999741
C    24.77999878   9.10000038  51.00000000
H    25.28614044   8.33722401  51.59168625
H    20.23999977   9.22999954  53.23999786
H    19.18000031   7.57000017  48.61000061
H    21.40000153   7.63999987  48.09000015
H    23.81000137   8.01999950  48.60000229
H    22.65999985   9.02999973  52.60000229
H    14.37000084   9.10000038  52.43000031
H    25.34000015   9.26999950  50.06000137
H    24.70000076  10.10000038  51.45000076
S    13.71000099   7.62000036  47.85999680
C    10.95000076   7.50999975  48.53000259
C    12.23999977   7.86000013  48.82999802
C    12.56999969   8.36000061  50.13000107
C    11.56000042   8.71000004  51.00999832
C    10.24000072   8.30000019  50.72000122
C     9.26999950   8.27000046  51.77000046
C     7.96000004   8.05999947  51.39999771
C     7.55999994   7.67000008  50.08999634
C     8.53999996   7.40000010  49.15999985
C     9.89000034   7.71000004  49.45999908
C    14.01000023   8.43000031  50.34999847
C    14.77000046   7.97999954  49.23999786
C    16.13000107   7.72000027  49.27000046
C     6.15000010   7.22000027  49.78000259
H     5.70776272   7.70503426  48.90979004
H    10.72000027   6.98000002  47.61000061
H    11.72999954   9.13999939  51.98999786
H     9.57999992   8.60999966  52.76000214
H     7.17999983   8.01000023  52.15000153
H     8.34000015   6.70000029  48.36000061
H    16.51000023   7.34000015  48.33000183
H     5.60999966   7.50999975  50.68999863
H     6.21000004   6.11999989  49.79999924
