96

S    17.47999954   8.47000027  58.88000107
C    20.19000053   8.61999989  58.20999908
C    18.90999985   8.26000023  57.85999680
C    18.52000046   7.86999989  56.53999710
C    19.55000114   7.69000006  55.63000107
C    20.89999962   7.79999971  56.02000427
C    21.96000099   7.50000000  55.12000275
C    23.29000092   7.76999998  55.38999939
C    23.59999847   8.38999939  56.63000107
C    22.62000084   8.65999985  57.55000305
C    21.25000000   8.36000061  57.29999924
C    17.07999992   7.76999998  56.32999802
C    16.39000130   8.10000038  57.52999878
C    15.01000023   8.11999989  57.57999802
C    25.00999832   8.76999950  57.00000000
H    25.49336243   8.12314796  57.73215103
H    20.45000076   9.02000046  59.18000031
H    19.40000153   7.16000032  54.69999695
H    21.70999908   7.20000029  54.10999680
H    24.05999947   7.65999985  54.64000320
H    22.86999893   9.26999950  58.41999817
H    14.44000053   8.36000061  58.47999954
H    25.55000114   8.88000011  56.04999924
H    24.90999985   9.81000042  57.34000397
S    13.88000011   7.32999992  53.86000061
C    11.13000011   7.32999992  54.61000061
C    12.44999981   7.60999966  54.86999893
C    12.79999924   7.96000004  56.22000122
C    11.78999996   8.14000034  57.15000153
C    10.43000031   7.85000038  56.88000107
C     9.48000050   7.73999977  57.93000031
C     8.19999981   7.34000015  57.63000107
C     7.79999971   7.11999989  56.27999878
C     8.76000023   6.93000031  55.31999969
C    10.07999992   7.40999985  55.56000137
C    14.23999977   7.94000053  56.43000031
C    14.94999981   7.63999987  55.24000168
C    16.32999992   7.44999981  55.19000244
C     6.34999990   6.72999954  56.07999802
H     5.97954130   7.25006676  55.19660187
H    10.90999985   6.96000004  53.61999893
H    12.09000015   8.28999996  58.18000031
H     9.81999969   7.76999998  58.95999908
H     7.55999994   7.07000017  58.46000290
H     8.51000023   6.57999992  54.31999969
H    16.84000015   7.13999987  54.29000092
H     5.82999992   7.02000046  57.01000214
H     6.25999975   5.64000034  55.98999786
S    17.39999962   8.96000004  52.54000092
C    20.10000038   8.48999977  51.95000076
C    18.78000069   8.34999943  51.60999680
C    18.42000008   8.05999947  50.25000000
C    19.45000076   7.73999977  49.38000107
C    20.82999992   7.86000013  49.66999817
C    21.84000015   7.90999985  48.67000198
C    23.09999847   8.36999989  48.94000244
C    23.42000008   8.75000000  50.27000046
C    22.47999954   8.69000053  51.27999878
C    21.14000130   8.27999973  51.00999832
C    16.98999977   8.07999992  49.98000336
C    16.38000107   8.64999962  51.11999893
C    15.00000000   8.85000038  51.16000366
C    24.82999992   9.15000057  50.61999893
H    25.28502464   8.52434063  51.38785553
H    20.28000069   9.02000046  52.88000107
H    19.22999954   7.78999996  48.30999756
H    21.52000046   7.77999973  47.63999939
H    23.85999870   8.60000038  48.20000076
H    22.73999977   8.93999958  52.30999756
H    14.60999966   9.22999954  52.09999847
H    25.45999908   9.10000038  49.72000122
H    24.86000061  10.19000053  50.94999695
S    13.69999981   7.36999989  47.65999603
C    11.02000046   7.37999964  48.50000000
C    12.32999992   7.73999977  48.72000122
C    12.76000023   8.36999989  49.93999863
C    11.82000065   8.65999985  50.91999817
C    10.47000027   8.26000023  50.76000214
C     9.42000008   8.39999962  51.70999908
C     8.10000038   8.30000019  51.33999634
C     7.72000027   7.82999992  50.05000305
C     8.69999981   7.57999992  49.12000275
C    10.06000042   7.82000017  49.45000076
C    14.19999981   8.47000027  50.06999969
C    14.81999969   7.95000029  48.90999603
C    16.18999863   7.73000002  48.88999939
C     6.32000017   7.34000015  49.77000427
H     5.89371443   7.87996244  48.92453384
H    10.62999916   6.81999969  47.65999603
H    12.18000031   8.93000031  51.90000153
H     9.61000061   8.73999977  52.72999573
H     7.42000008   8.50000000  52.15999985
H     8.50000000   6.96000004  48.25000000
H    16.65999985   7.32999992  47.98999786
H     5.65999985   7.42999983  50.63999939
H     6.47000027   6.25999975  49.61999893
