96

S    16.87999916   8.34000015  58.67000198
C    19.50000000   8.80000019  57.84999847
C    18.23999977   8.34000015  57.52999878
C    17.95999908   7.92999983  56.18000031
C    18.97999954   7.90999985  55.25000000
C    20.32999992   8.14000034  55.63000107
C    21.45999908   8.10000038  54.77000427
C    22.72999954   8.45000076  55.14999771
C    22.93000031   9.02000046  56.44000244
C    21.87999916   9.10000038  57.32999802
C    20.59000015   8.64999962  56.95000076
C    16.52000046   8.10000038  56.06999969
C    15.80000019   8.05000019  57.29000092
C    14.42000008   8.10000038  57.43999863
C    24.26000214   9.52999973  56.93000031
H    24.76963234   8.90003777  57.65905762
H    19.63999939   9.28999996  58.81000137
H    18.68999863   7.72000027  54.22999954
H    21.25999832   7.82000017  53.73000336
H    23.61999893   8.25000000  54.54999924
H    22.03000069   9.40999985  58.36000061
H    14.07999992   8.21000004  58.47000122
H    24.90999985   9.63999939  56.04999924
H    24.10000038  10.47999954  57.43999863
S    13.19000053   7.67000008  53.74000168
C    10.52000046   7.28999996  54.40999985
C    11.79999924   7.51999950  54.84000397
C    12.15000057   7.81000042  56.19999695
C    11.13000011   7.77999973  57.14000320
C     9.80000019   7.49000025  56.76000214
C     8.78000069   7.27999973  57.72999573
C     7.50999975   6.94999981  57.35000229
C     7.16000032   6.84000015  55.97999954
C     8.13000011   6.97000027  55.01999664
C     9.47000027   7.31999969  55.37000275
C    13.59000015   8.01999950  56.31999969
C    14.29999924   7.95000029  55.10000229
C    15.67999935   8.03999996  54.94999695
C     5.75000000   6.50000000  55.54999924
H     5.25870466   7.26186419  54.94477844
H    10.25000000   6.94000006  53.41999817
H    11.39999962   7.99000025  58.16999817
H     9.10000038   7.62000036  58.72000122
H     6.77999973   6.70000029  58.11999893
H     7.92000008   6.71999979  53.97999573
H    16.02000046   7.85000038  53.93000031
H     5.23999977   6.40999985  56.52000046
H     5.69000006   5.51999998  55.06000137
S    13.57999992   5.65000010  51.05999756
C    10.95999908   4.90000010  51.60999680
C    12.28999996   4.82999992  51.95999908
C    12.81000042   4.23999977  53.15000153
C    11.97999954   3.54999995  54.01000214
C    10.59000015   3.61999989  53.75999832
C     9.65999985   3.22000003  54.77000427
C     8.30999947   3.37000012  54.61999893
C     7.88000011   3.74000025  53.31999969
C     8.71000004   4.30999994  52.37999725
C    10.11999989   4.26999998  52.56999969
C    14.21000004   4.59000015  53.36999893
C    14.81999969   5.19999981  52.25000000
C    16.14999962   5.59000015  52.31999969
C     6.51000023   3.25999999  52.88999939
H     5.95620346   3.92739606  52.22970200
H    10.62999916   5.49000025  50.76000214
H    12.38000011   3.01999998  54.86999893
H    10.10000038   2.71000004  55.61999893
H     7.63000011   2.99000001  55.38000107
H     8.39999962   4.63000011  51.38999939
H    16.62999916   6.11000013  51.50000000
H     6.51999998   2.27999997  52.38999939
H     5.92999983   3.10999990  53.81000137
S    17.53000069   3.94000006  55.68999863
C    20.20999908   4.19999981  54.88999939
C    18.88000107   4.48999977  54.68000031
C    18.38000107   5.09999990  53.48999786
C    19.31999969   5.51999998  52.56999969
C    20.69999886   5.29999971  52.80000305
C    21.65999985   5.77000046  51.84999847
C    23.00000000   5.73000002  52.15999985
C    23.44000053   5.23000002  53.40999985
C    22.59000015   4.61999989  54.29999924
C    21.19999886   4.73000002  54.02999878
C    16.93000031   5.07000017  53.36000061
C    16.31999969   4.46000004  54.48999786
C    14.96000099   4.19000006  54.47999954
C    24.92000198   5.09000015  53.70999908
H    25.22482109   5.47988701  54.68117142
H    20.52000046   3.48000002  55.65000153
H    18.90999985   5.95000029  51.65999985
H    21.25999832   6.24000025  50.96000290
H    23.68000031   6.26999950  51.50000000
H    22.95000076   4.13999987  55.20000076
H    14.53999996   3.37000012  55.06000137
H    25.46999931   5.63000011  52.94000244
H    24.97999954   3.98999977  53.70999908
