96

S    17.05999947   8.32999992  58.77999878
C    19.64999962   8.85000038  57.97999954
C    18.44000053   8.27000046  57.65999603
C    18.02000046   7.83999968  56.37000275
C    19.04999924   7.75000000  55.44000244
C    20.36000061   8.14999962  55.79000092
C    21.42999840   7.88000011  54.88999939
C    22.72000122   8.23999977  55.17000198
C    23.02000046   8.86999989  56.40999603
C    22.04999924   9.13000011  57.34000397
C    20.69999886   8.78999996  57.02999878
C    16.59000015   7.59000015  56.24000168
C    15.95000076   8.03999996  57.42000198
C    14.59000015   8.31999969  57.37999725
C    24.44999886   9.23999977  56.72999954
H    24.89912033   8.54849529  57.44289017
H    19.86999893   9.34000015  58.93000031
H    18.86000061   7.18999958  54.52999878
H    21.27000046   7.40000010  53.92000198
H    23.50000000   8.19000053  54.40999985
H    22.25000000   9.67000008  58.26000214
H    14.18000031   8.78000069  58.27000046
H    25.09000015   9.39000034  55.84999847
H    24.41999817  10.22999954  57.19999695
S    13.45000076   7.07000017  53.77999878
C    10.80999947   7.03000021  54.52000046
C    12.09000015   7.42999983  54.86000061
C    12.35000038   7.99000025  56.14999771
C    11.35000038   8.10000038  57.09999847
C    10.01000023   7.82999992  56.70999908
C     8.90999985   8.00000000  57.60000229
C     7.63000011   7.69999981  57.21000290
C     7.36000013   7.07999992  55.96000290
C     8.43000031   6.84999990  55.11000061
C     9.72999954   7.32999992  55.38999939
C    13.80000019   8.06999969  56.25000000
C    14.50000000   7.59000015  55.12000275
C    15.85000038   7.26000023  55.10000229
C     5.97000027   6.56000042  55.68000031
H     5.45013475   7.07986546  54.87527466
H    10.51000023   6.48000002  53.63999939
H    11.54000092   8.42000008  58.11999893
H     9.19999981   8.43999958  58.54999924
H     6.76999998   7.90000010  57.84999847
H     8.36000061   6.14000034  54.29000092
H    16.42000008   6.97000027  54.22000122
H     5.40000010   6.65999985  56.62000275
H     6.09000015   5.47999954  55.54000092
S    13.47000027   4.92000008  50.90000153
C    10.75000000   4.69000006  51.52000046
C    12.05999947   4.38000011  51.81999969
C    12.50000000   3.84000015  53.06999969
C    11.50000000   3.45999980  53.94000244
C    10.11999989   3.58999991  53.64999771
C     9.13999939   3.00000000  54.50000000
C     7.85000038   3.17000008  54.06000137
C     7.44999981   3.93000007  52.93000031
C     8.38999939   4.33999968  52.01000214
C     9.75000000   4.19000006  52.38999939
C    13.94999981   3.88999987  53.25000000
C    14.61999989   4.57999992  52.21000290
C    15.98000050   4.88000011  52.23999786
C     5.98000002   4.21000004  52.75000000
H     5.59670830   3.70604181  51.86275101
H    10.42000008   5.15999985  50.59999847
H    11.80999947   2.93000007  54.84000397
H     9.46000004   2.56000018  55.44000244
H     7.09999990   2.86999989  54.79000092
H     8.27999973   4.72000027  51.00000000
H    16.51000023   5.42000008  51.45999908
H     5.46000004   3.75000000  53.60000229
H     5.73999977   5.26999998  52.61000061
S    17.20000076   3.45999980  55.72999954
C    19.93999863   4.09999990  55.17000198
C    18.60000038   4.13999987  54.86999893
C    18.15000153   4.71000004  53.63999939
C    19.03000069   5.25000000  52.71999741
C    20.42000008   5.13000011  52.98999786
C    21.35999870   5.72000027  52.09000015
C    22.70999908   5.53999996  52.25999832
C    23.15999985   4.90000010  53.44999695
C    22.29999924   4.44999981  54.41999817
C    20.88999939   4.55000019  54.20999908
C    16.75000000   4.46000004  53.33000183
C    16.09000015   3.78999996  54.38999939
C    14.73999977   3.44000006  54.31000137
C    24.63000107   4.63000011  53.67000198
H    25.04450607   4.96589327  54.62050629
H    20.23999977   3.63000011  56.10000229
H    18.77000046   5.78000021  51.81000137
H    20.94000053   6.15000010  51.18999863
H    23.47999954   5.97000027  51.62000275
H    22.69000053   3.91999984  55.28999710
H    14.28999996   3.01999998  55.20999908
H    25.13000107   5.05999994  52.80000305
H    24.84000015   3.55999994  53.52000427
