96

S    16.93000031   8.36999989  58.88000107
C    19.68000031   8.32999992  58.18000031
C    18.36000061   8.09000015  57.88000107
C    17.98999977   7.53000021  56.60999680
C    18.96000099   7.31999969  55.65000153
C    20.29000092   7.78999996  55.84000015
C    21.30000114   7.60999966  54.86000061
C    22.59000015   8.01000023  55.13999939
C    22.98999977   8.30999947  56.46999741
C    22.06000137   8.23999977  57.48000336
C    20.66999817   8.17000008  57.16999817
C    16.55999947   7.27999973  56.56999969
C    15.78999996   7.79999971  57.64999771
C    14.40000057   7.95000029  57.68000031
C    24.44999886   8.60000038  56.72000122
H    24.84161186   7.86661625  57.42490387
H    20.13000107   8.43999958  59.16999817
H    18.70000076   6.78999996  54.73999786
H    20.96999931   7.23000002  53.89999771
H    23.31999969   8.14000034  54.34000015
H    22.29999924   8.38999939  58.53000259
H    13.96999931   8.43999958  58.54999924
H    24.96999931   8.48999977  55.76000214
H    24.54000092   9.64999962  57.04000092
S    13.38000107   6.54999971  54.12000275
C    10.64000034   6.56000042  54.73999786
C    11.94000053   6.85999966  55.10000229
C    12.25000000   7.53000021  56.32999802
C    11.21999931   7.88999987  57.16999817
C     9.89999962   7.46999979  56.84999847
C     8.89999962   7.63000011  57.84999847
C     7.59000015   7.27999973  57.60000229
C     7.22000027   6.84000015  56.30000305
C     8.17000008   6.67999983  55.31000137
C     9.55000019   6.85999966  55.59999847
C    13.68999958   7.57999992  56.52999878
C    14.44000053   7.11000013  55.41999817
C    15.80999947   6.88000011  55.45999908
C     5.82000017   6.39999962  55.94999695
H     5.42912006   6.77666616  55.00477982
H    10.54999924   6.07999992  53.76999664
H    11.38000011   8.26000023  58.18000031
H     9.17000008   8.11999989  58.77999878
H     6.88000011   7.53000021  58.37999725
H     7.96000004   6.11999989  54.40999985
H    16.27000046   6.60000038  54.51000214
H     5.23000002   6.71999979  56.81999969
H     5.92999983   5.31000042  55.90999985
S    17.29999924   8.53999996  52.87000275
C    19.92000008   9.06000042  52.04000092
C    18.68999863   8.50000000  51.77000046
C    18.34000015   7.99000025  50.47999954
C    19.38999939   7.83999968  49.58000183
C    20.69000053   8.34999943  49.80999756
C    21.73999977   8.32999992  48.86000061
C    22.98999977   8.84000015  49.10999680
C    23.28000069   9.35999966  50.40000153
C    22.27999878   9.44999981  51.33999634
C    20.96999931   8.94999981  51.09000397
C    16.90000153   7.85000038  50.33000183
C    16.21000099   8.23000050  51.51000214
C    14.81999969   8.34999943  51.56000137
C    24.68000031   9.78999996  50.76000214
H    25.14334869   9.19120979  51.54413223
H    20.10999870   9.55000019  52.98999786
H    19.20999908   7.46999979  48.57999802
H    21.48999977   7.96000004  47.87000275
H    23.78999901   8.84000015  48.36999893
H    22.43000031   9.92999935  52.29999924
H    14.30999947   8.55000019  52.50000000
H    25.20000076   9.61999989  49.79999924
H    24.70000076  10.85999966  51.00999832
S    13.73000050   7.25000000  47.88000107
C    11.02000046   7.09999990  48.53000259
C    12.28999996   7.49000025  48.88999939
C    12.64999962   7.92000008  50.20999908
C    11.65999985   8.01000023  51.17000198
C    10.36000061   7.55000019  50.89000320
C     9.30999947   7.39000034  51.84000015
C     8.06999969   6.88000011  51.51000214
C     7.76999998   6.65999985  50.13999939
C     8.73000050   6.71000004  49.15000153
C    10.03000069   7.13000011  49.54999924
C    14.07999992   8.09000015  50.40000153
C    14.78999996   7.65999985  49.25000000
C    16.17000008   7.57000017  49.16999817
C     6.35999966   6.26999950  49.75999832
H     6.02692938   6.57472372  48.76787567
H    10.72000027   6.65999985  47.58999634
H    11.76000023   8.30999947  52.21000290
H     9.36999989   7.79999971  52.84000015
H     7.34000015   6.72999954  52.29999924
H     8.52000046   6.39999962  48.13000107
H    16.68000031   7.23999977  48.27000046
H     5.73000002   6.65000010  50.58000183
H     6.19000006   5.19999981  49.88999939
