96

S    16.61999893   8.43999958  58.81999969
C    19.36000061   8.52000046  58.23999786
C    18.09000015   8.14000034  57.87000275
C    17.77000046   7.73999977  56.52999878
C    18.78000069   7.76000023  55.58000183
C    20.10999870   8.10000038  55.90000153
C    21.19999886   7.73999977  55.06000137
C    22.50000000   7.95000029  55.47000122
C    22.73999977   8.64999962  56.68000031
C    21.71999931   8.82000065  57.58999634
C    20.38000107   8.46000004  57.25999832
C    16.34000015   7.68000031  56.26999664
C    15.59999943   7.99000025  57.43999863
C    14.21000004   8.05000019  57.50999832
C    24.10000038   9.23999977  56.97999954
H    24.60327530   8.65875149  57.75263596
H    19.54000092   8.89000034  59.25000000
H    18.60000038   7.27999973  54.61999893
H    21.01000023   7.26999998  54.09999847
H    23.28000069   7.55999994  54.84000397
H    22.03000069   9.32999992  58.50000000
H    13.63000011   8.27000046  58.40999985
H    24.68000031   9.23999977  56.04000092
H    24.00000000  10.26999950  57.31999969
S    13.12999916   7.07000017  53.82999802
C    10.39999962   7.03000021  54.50000000
C    11.69999981   7.26999998  54.86000061
C    12.05999947   7.57999992  56.20999908
C    11.05000019   7.63999987  57.15000153
C     9.68999958   7.40999985  56.81000137
C     8.59000015   7.36000013  57.70999908
C     7.27999973   7.20000029  57.29999924
C     6.98999977   6.94999981  55.93000031
C     8.02999973   6.76000023  55.05000305
C     9.35999966   7.02000046  55.47000122
C    13.50000000   7.71000004  56.36000061
C    14.22999954   7.44000006  55.17000198
C    15.62000084   7.35000038  55.12000275
C     5.55999994   6.65999985  55.54000092
H     5.17469311   7.40207195  54.84074020
H    10.24000072   6.52999973  53.54999924
H    11.39999962   7.83999968  58.15999985
H     8.82999992   7.30999994  58.76999664
H     6.48999977   7.22000027  58.04000092
H     7.82000017   6.57000017  54.00000000
H    16.13999939   7.05999947  54.20999908
H     4.94000006   6.57999992  56.45000076
H     5.52999973   5.69000006  55.02999878
S    13.68999958   5.14999962  50.89000320
C    11.00000000   4.53000021  51.56999969
C    12.35000038   4.44999981  51.81999969
C    12.72999954   3.78999996  53.02999878
C    11.77999973   3.25000000  53.88000107
C    10.39999962   3.49000001  53.66000366
C     9.39000034   3.00999999  54.54000092
C     8.05000019   3.07000017  54.22000122
C     7.63999987   3.70000005  53.02000046
C     8.56999969   4.19000006  52.14000320
C     9.96000004   4.03999996  52.39999771
C    14.13000011   4.07000017  53.27999878
C    14.78999996   4.76999998  52.23999786
C    16.15999985   5.00000000  52.18000031
C     6.15999985   4.01999998  52.88000107
H     5.72491407   3.61344433  51.96703339
H    10.67000008   5.07000017  50.68000031
H    12.20000076   2.86000013  54.79999924
H     9.76000023   2.33999991  55.31000137
H     7.30000019   2.75999999  54.93999863
H     8.32999992   4.86000013  51.31999969
H    16.60000038   5.59999990  51.38999939
H     5.66999960   3.65000010  53.79000092
H     6.17999983   5.10999966  52.80000305
S    17.40999985   3.35999990  55.59999847
C    20.10999870   3.86000013  55.05000305
C    18.78999901   3.94000006  54.65000153
C    18.36000061   4.61999989  53.47000122
C    19.31999969   5.07999992  52.58999634
C    20.68000031   5.09999990  52.97999954
C    21.70999908   5.61999989  52.14000320
C    23.02999878   5.50000000  52.49000168
C    23.42000008   4.86999989  53.69999695
C    22.43999863   4.36999989  54.54000092
C    21.05999947   4.53000021  54.25000000
C    16.92000008   4.57999992  53.27000046
C    16.27000046   4.00000000  54.40000153
C    14.91000080   3.71000004  54.38999939
C    24.82000160   4.30999994  53.76999664
H    25.28322029   4.45252943  54.74632263
H    20.38000107   3.26999998  55.91999817
H    19.04000092   5.51000023  51.63000107
H    21.44000053   5.88999987  51.11999893
H    23.81999969   5.63000011  51.76000214
H    22.77000046   3.68999982  55.31999969
H    14.55000019   3.05999994  55.18000031
H    25.40999985   4.77999973  52.97999954
H    24.77000046   3.23000002  53.55999756
