96

S    16.84999847   8.11999989  58.70999908
C    19.60000038   8.02999973  58.26000214
C    18.34000015   7.73000002  57.81000137
C    18.04000092   7.23000002  56.51000214
C    19.06999969   7.22000027  55.59000015
C    20.38999939   7.55000019  55.98999786
C    21.42000008   7.65999985  55.00999832
C    22.67000008   8.00000000  55.47999954
C    22.95999908   8.40999985  56.79999924
C    21.97000122   8.38000011  57.75000000
C    20.69000053   7.90999985  57.35000229
C    16.60000038   7.11999989  56.29000092
C    15.80999947   7.62000036  57.36000061
C    14.44000053   7.82999992  57.31999969
C    24.37000084   8.71999931  57.23999786
H    24.74787140   7.93573666  57.89592743
H    19.80999947   8.34999943  59.27999878
H    18.82999992   7.04999971  54.54000092
H    21.21999931   7.40999985  53.97999573
H    23.46999931   8.06999969  54.73999786
H    22.13999939   8.76000023  58.75999832
H    13.89000034   8.03999996  58.22999954
H    24.99000168   8.97999954  56.37000275
H    24.31999969   9.68000031  57.77999878
S    13.42000008   6.63999987  53.66000366
C    10.71000004   6.61000013  54.31000137
C    11.98999977   7.00000000  54.64000320
C    12.34000015   7.60999966  55.89000320
C    11.28999901   7.81000042  56.77000046
C     9.94000053   7.42999983  56.56999969
C     8.88000011   7.59000015  57.50000000
C     7.63000011   7.07999992  57.23999786
C     7.37999964   6.46000004  55.98999786
C     8.34000015   6.48999977  55.00000000
C     9.68999958   6.84000015  55.27000046
C    13.76999950   7.55000019  56.11999893
C    14.50000000   7.03999996  55.00999832
C    15.88000107   6.90000010  55.11000061
C     5.93999958   6.07999992  55.70000076
H     5.53524208   6.74039364  54.93309021
H    10.36000061   6.19999981  53.36000061
H    11.59000015   7.95000029  57.80000305
H     9.03999996   8.11999989  58.43000031
H     6.76999998   7.30000019  57.85999680
H     8.14000034   6.12999964  53.99000168
H    16.40999985   6.53999996  54.22999954
H     5.36000013   6.24000025  56.62000275
H     5.84000015   5.03999996  55.38000107
S    17.43999863   8.78999996  52.87000275
C    20.15000153   8.97999954  52.12999725
C    18.86000061   8.61999989  51.81999969
C    18.53000069   8.21000004  50.48999786
C    19.59000015   8.05000019  49.61999893
C    20.95999908   8.32999992  49.86999893
C    22.01000023   8.34000015  48.90999603
C    23.31000137   8.50000000  49.31999969
C    23.57000160   8.92000008  50.65000153
C    22.56999969   8.93999958  51.59000015
C    21.21000099   8.73999977  51.22000122
C    17.07999992   8.10999966  50.31000137
C    16.38000107   8.50000000  51.47999573
C    15.00000000   8.69000053  51.43000031
C    24.97999954   9.28999996  51.06999969
H    25.40786362   8.64820671  51.84015274
H    20.38000107   9.27999973  53.15000153
H    19.38999939   7.73999977  48.60000229
H    21.80000114   7.97999954  47.90999985
H    24.11999893   8.34999943  48.60000229
H    22.72999954   9.34000015  52.58999634
H    14.65999985   8.80999947  52.44999695
H    25.65999985   9.30999947  50.20999908
H    24.84000015  10.32999992  51.40999603
S    13.89000034   7.30999994  47.87000275
C    11.21999931   7.13999987  48.56999969
C    12.48000050   7.57000017  48.90999603
C    12.79999924   8.23000050  50.13999939
C    11.78999996   8.48999977  51.05999756
C    10.50000000   7.99000025  50.77000046
C     9.47000027   8.14000034  51.72999954
C     8.17000008   7.76999998  51.46999741
C     7.81000042   7.23000002  50.20999908
C     8.82999992   6.96000004  49.31999969
C    10.18000031   7.36000013  49.52000046
C    14.23999977   8.36999989  50.30000305
C    14.93999958   7.81000042  49.20999908
C    16.31999969   7.64999962  49.22999954
C     6.40999985   6.72999954  49.93999863
H     6.01107168   7.22866011  49.05665588
H    11.00999928   6.51999998  47.70000076
H    12.10000038   8.78999996  52.05999756
H     9.77999973   8.73999977  52.58999634
H     7.37999964   7.82999992  52.22000122
H     8.63000011   6.48999977  48.36999893
H    16.90000153   7.30000019  48.37999725
H     5.78999996   6.90000010  50.81999969
H     6.51999998   5.64000034  49.84000397
