96

S    16.87999916   8.42000008  58.85000229
C    19.62000084   8.27000046  58.20000076
C    18.30999947   7.99000025  57.88999939
C    17.93000031   7.51999950  56.59000015
C    18.95000076   7.28999996  55.68999863
C    20.29999924   7.53999996  56.03000259
C    21.35999870   7.46999979  55.06999969
C    22.65000153   7.88000011  55.27000046
C    22.98000145   8.34999943  56.56999969
C    22.06000137   8.34000015  57.58999634
C    20.69999886   8.03999996  57.30999756
C    16.50000000   7.46000004  56.31999969
C    15.85999966   7.95000029  57.48000336
C    14.47999954   8.11999989  57.49000168
C    24.33000183   8.97999954  56.83000183
H    24.85031128   8.31713963  57.52137375
H    19.78000069   8.47999954  59.26000214
H    18.71000099   6.83000040  54.72999954
H    21.00000000   7.21000004  54.08000183
H    23.32999992   7.96000004  54.41999817
H    22.43999863   8.64000034  58.56999969
H    14.01000023   8.25000000  58.46000290
H    24.77000046   9.15999985  55.84000015
H    24.13999939   9.92000008  57.36999893
S    13.22000027   7.05999947  53.86000061
C    10.59000015   6.83000040  54.75999832
C    11.87999916   7.23000002  55.00000000
C    12.30000019   7.73999977  56.26999664
C    11.32999992   7.86999989  57.25000000
C     9.98000050   7.49000025  57.06999969
C     8.96000004   7.75000000  58.02999878
C     7.63000011   7.55999994  57.71999741
C     7.30000019   7.03999996  56.44000244
C     8.25000000   6.67000008  55.52000046
C     9.61999989   6.94000006  55.79000092
C    13.75000000   7.82000017  56.31999969
C    14.40000057   7.36999989  55.14999771
C    15.77999973   7.21000004  55.13999939
C     5.84000015   6.94000006  56.03000259
H     5.55600834   7.58608246  55.19932556
H    10.38000011   6.37000036  53.79000092
H    11.54999924   8.42000008  58.15999985
H     9.22999954   8.15999985  59.00000000
H     6.84000015   7.90000010  58.39000320
H     7.92000008   6.17000008  54.61000061
H    16.31000137   7.07000017  54.20000076
H     5.21000004   7.13000011  56.90000153
H     5.66999960   5.88000011  55.79999924
S    13.82999992   4.84000015  50.98999786
C    11.10999966   4.30999994  51.55000305
C    12.43999958   4.21000004  51.88999939
C    12.86000061   3.72000003  53.16999817
C    11.92000008   3.28000021  54.08000183
C    10.54999924   3.44000006  53.77999878
C     9.59999943   2.96999979  54.73999786
C     8.26000023   3.07000017  54.43000031
C     7.77999973   3.67000008  53.23999786
C     8.71999931   4.11000013  52.34000397
C    10.13000011   3.93000007  52.50000000
C    14.27000046   3.93000007  53.46000290
C    14.88000011   4.65999985  52.39999771
C    16.22999954   5.00999975  52.32999802
C     6.30999994   3.98999977  53.01000214
H     5.91111422   3.39167118  52.19086075
H    10.82999992   4.77999973  50.61000061
H    12.20000076   2.86999989  55.05000305
H     9.94999981   2.50999975  55.65999985
H     7.53000021   2.59999990  55.06999969
H     8.43000031   4.59000015  51.40999603
H    16.56999969   5.33999968  51.36000061
H     5.82999992   3.73000002  53.95999908
H     6.28999996   5.07999992  53.00000000
S    17.67000008   3.35000014  55.59999847
C    20.35000038   3.76999998  54.86999893
C    19.01000023   4.03999996  54.65999985
C    18.53000069   4.57999992  53.43000031
C    19.45999908   4.96000004  52.48000336
C    20.85000038   4.86999989  52.72999573
C    21.84999847   5.33999968  51.81999969
C    23.18000031   5.40999985  52.18000031
C    23.57999992   4.76999998  53.37999725
C    22.69000053   4.23000002  54.27999878
C    21.30000114   4.32000017  53.97999573
C    17.07999992   4.61999989  53.37999725
C    16.45000076   3.91000009  54.43000031
C    15.11000061   3.53999996  54.51000214
C    25.06000137   4.59000015  53.64999771
H    25.40896034   4.71106768  54.67550659
H    20.62000084   3.17999983  55.73999786
H    19.07999992   5.26000023  51.51000214
H    21.47999954   5.66999960  50.86000061
H    23.85999870   5.59999990  51.36000061
H    22.90999985   3.76999998  55.24000168
H    14.80999947   2.94000006  55.35999680
H    25.72999954   5.21000004  53.04999924
H    25.26000023   3.52999973  53.44999695
