96

S    16.54999924   8.86999989  58.54999924
C    19.27999878   8.71999931  57.97000122
C    17.97999954   8.39999962  57.62000275
C    17.61000061   7.92999983  56.31999969
C    18.70000076   7.62000036  55.52000046
C    20.05000114   7.96000004  55.80999756
C    21.14999962   7.71000004  54.93999863
C    22.43000031   8.13000011  55.25000000
C    22.77000046   8.80999947  56.45000076
C    21.68999863   9.06999969  57.25999832
C    20.35000038   8.64000034  57.04000092
C    16.18999863   8.00000000  56.04999924
C    15.48999977   8.50000000  57.18000031
C    14.11000061   8.60000038  57.22000122
C    24.18999863   9.18000031  56.81000137
H    24.67946053   8.52029133  57.52645874
H    19.42000008   8.97999954  59.01000214
H    18.63000107   7.07999992  54.58000183
H    20.90999985   7.26999998  53.97999573
H    23.21000099   8.03999996  54.50000000
H    21.80000114   9.73999977  58.09999847
H    13.57999992   8.80000019  58.15000153
H    24.79999924   9.15999985  55.89000320
H    24.18999863  10.18000031  57.25000000
S    12.97000027   6.83000040  53.87000275
C    10.27999973   6.75000000  54.51000214
C    11.54999924   7.11999989  54.88999939
C    11.92000008   7.79999971  56.09000397
C    10.88999939   8.01999950  56.98999786
C     9.55000019   7.64999962  56.70999908
C     8.55000019   7.75000000  57.71999741
C     7.25000000   7.44000006  57.39999771
C     6.90999985   6.94000006  56.11999893
C     7.86999989   6.84999990  55.13999939
C     9.25000000   7.09999990  55.40999985
C    13.35000038   8.10999966  56.14999771
C    14.04999924   7.63000011  55.01999664
C    15.44000053   7.50999975  54.97000122
C     5.47999954   6.50000000  55.90000153
H     5.06038952   7.05473900  55.06077957
H    10.14000034   6.12999964  53.61999893
H    11.10000038   8.31999969  58.01000214
H     8.89999962   8.00000000  58.72000122
H     6.60000038   7.46000004  58.27999878
H     7.69999981   6.48000002  54.13000107
H    15.93000031   7.03000021  54.13000107
H     4.92000008   6.90000010  56.75000000
H     5.36000013   5.42000008  55.79000092
S    17.77000046   9.06000042  52.85999680
C    20.50000000   9.09000015  52.18999863
C    19.19999886   8.80999947  51.84000015
C    18.89000130   8.19000053  50.59000015
C    19.84000015   8.27999973  49.59000015
C    21.17000198   8.67999935  49.88999939
C    22.21999931   8.56999969  48.94000244
C    23.52000046   8.93000031  49.22000122
C    23.81999969   9.52000046  50.47999954
C    22.84000015   9.63000011  51.43000031
C    21.52000046   9.15000057  51.19999695
C    17.46999931   7.92000008  50.43000031
C    16.77999878   8.30000019  51.59999847
C    15.40999985   8.53999996  51.58000183
C    25.25000000   9.88000011  50.84000015
H    25.64759064   9.19131851  51.58547974
H    20.78000069   9.44999981  53.16999817
H    19.60000038   7.92000008  48.59000397
H    22.01999855   8.07999992  47.98999786
H    24.27999878   8.80999947  48.46000290
H    23.00000000  10.03000069  52.43000031
H    14.93999958   8.73999977  52.54000092
H    25.79000092   9.90999985  49.87999725
H    25.20000076  10.88999939  51.25999832
S    14.30999947   7.36000013  47.95000076
C    11.59000015   7.28999996  48.56999969
C    12.86999893   7.55999994  48.97999573
C    13.23999977   8.10000038  50.25000000
C    12.25000000   8.56999969  51.09000397
C    10.90999985   8.30000019  50.70999908
C     9.85999966   8.38000011  51.66999817
C     8.56999969   8.01999950  51.36000061
C     8.23999977   7.50000000  50.07999802
C     9.22999954   7.26000023  49.15000153
C    10.57000065   7.59999990  49.50000000
C    14.68000031   8.21000004  50.43000031
C    15.39000034   7.76999998  49.29000092
C    16.77999878   7.67000008  49.22999954
C     6.80000019   7.11000013  49.81999969
H     6.28489733   7.89696264  49.26912689
H    11.42000008   6.81999969  47.61000061
H    12.55000019   9.02999973  52.02999878
H    10.14000034   8.52000046  52.70999908
H     7.76000023   7.95000029  52.09000015
H     9.03999996   6.71000004  48.22999954
H    17.31999969   7.55000019  48.29000092
H     6.34999990   6.90999985  50.79999924
H     6.72999954   6.14000034  49.29999924
