96

S    17.07999992   8.32999992  58.88999939
C    19.77000046   8.56000042  58.13999939
C    18.48999977   8.19999981  57.81999969
C    18.15000153   7.62000036  56.55000305
C    19.13999939   7.50999975  55.59999847
C    20.46999931   7.92000008  55.86999893
C    21.56999969   7.81000042  54.98000336
C    22.81999969   8.34999943  55.18000031
C    23.16999817   8.93000031  56.43000031
C    22.10000038   9.02999973  57.29000092
C    20.79000092   8.48999977  57.15999985
C    16.70999908   7.51999950  56.35000229
C    16.03000069   7.99000025  57.50000000
C    14.63999939   8.10999966  57.47000122
C    24.63999939   9.13000011  56.68000031
H    25.05183220   8.41994476  57.39715958
H    19.89999962   9.23999977  58.97999573
H    18.86000061   7.18999958  54.59999847
H    21.35999870   7.42999983  53.97999573
H    23.57999992   8.14999962  54.41999817
H    22.29999924   9.40999985  58.29000092
H    14.06000042   8.36999989  58.34999847
H    25.22000122   9.21000004  55.75000000
H    24.79000092  10.11999989  57.14000320
S    13.57999992   7.21000004  53.75999832
C    10.90000057   6.98000002  54.36000061
C    12.13999939   7.42000008  54.77000427
C    12.48000050   7.90999985  56.06999969
C    11.44999981   8.01999950  56.97999954
C    10.11999989   7.69000006  56.60999680
C     9.10000038   7.75000000  57.58999634
C     7.82000017   7.30999994  57.30999756
C     7.57999992   6.80000019  56.00999832
C     8.56000042   6.58999968  55.06000137
C     9.85000038   7.13000011  55.31000137
C    13.92000008   7.92000008  56.27999878
C    14.65000057   7.44999981  55.15999603
C    16.02000046   7.18999958  55.18000031
C     6.21999979   6.19999981  55.77000046
H     5.68751431   6.82478237  55.05291748
H    10.69000053   6.38000011  53.47999954
H    11.69000053   8.18000031  58.02999878
H     9.43000031   7.99000025  58.60000229
H     7.00000000   7.31999969  58.02000046
H     8.43999958   5.84999990  54.27999878
H    16.57999992   6.81999969  54.33000183
H     5.64000034   6.03999996  56.69000244
H     6.32000017   5.23000002  55.27000046
S    17.59000015   8.80000019  52.67000198
C    20.28000069   8.82000065  52.01000214
C    19.01000023   8.38000011  51.70000076
C    18.64999962   8.05000019  50.34999847
C    19.56999969   8.00000000  49.31999969
C    20.89999962   8.34000015  49.65999985
C    21.94999886   8.19000053  48.72000122
C    23.28000069   8.34999943  49.05000305
C    23.61999893   8.80000019  50.34999847
C    22.63000107   8.97999954  51.29000092
C    21.25000000   8.78000069  50.98999786
C    17.20000076   8.00000000  50.18000031
C    16.50000000   8.51000023  51.30000305
C    15.14000034   8.78000069  51.29000092
C    25.00999832   9.19999981  50.76000214
H    25.50201988   8.61527824  51.53725052
H    20.45999908   9.31999969  52.95999908
H    19.26000023   7.69000006  48.31999969
H    21.77000046   7.97999954  47.67000198
H    24.05999947   8.02999973  48.36000061
H    22.86000061   9.44999981  52.25000000
H    14.65999985   8.97000027  52.25000000
H    25.59999847   9.19999981  49.82999802
H    25.15000153  10.21000004  51.17000198
S    14.01999950   7.42999983  47.70999908
C    11.33999920   7.40999985  48.33000183
C    12.60000038   7.82999992  48.68999863
C    12.94000053   8.23000050  50.01999664
C    11.90999985   8.38000011  50.93000031
C    10.59000015   8.01999950  50.56999969
C     9.52999973   8.10999966  51.52000046
C     8.23999977   7.73999977  51.20999908
C     7.95000029   7.13000011  49.94999695
C     8.93999958   7.09000015  48.99000168
C    10.26999950   7.50000000  49.27000046
C    14.37999916   8.36999989  50.18000031
C    15.08999920   7.92000008  49.03999710
C    16.46999931   7.72000027  49.02000046
C     6.56000042   6.61999989  49.65999985
H     6.08924103   7.09075832  48.79693985
H    11.14999962   6.94999981  47.36999893
H    12.10000038   8.64000034  51.97000122
H     9.67000008   8.34999943  52.56999969
H     7.50000000   7.59000015  51.98999786
H     8.59000015   6.63000011  48.06999969
H    16.94000053   7.42000008  48.09000015
H     5.80999947   6.76999998  50.44000244
H     6.61000013   5.58000040  49.31000137
