96

S    17.19000053   8.23000050  58.93000031
C    19.84000015   8.48999977  58.09999847
C    18.54999924   8.10999966  57.80000305
C    18.15999985   7.76999998  56.45999908
C    19.15999985   7.63000011  55.51000214
C    20.48999977   8.05000019  55.77000046
C    21.47000122   8.14000034  54.75000000
C    22.78000069   8.45000076  55.05000305
C    23.09000015   9.02000046  56.31000137
C    22.13000107   9.06999969  57.29000092
C    20.81000137   8.59000015  57.05999756
C    16.70999908   7.69999981  56.39999771
C    16.03000069   7.99000025  57.61000061
C    14.65000057   8.11999989  57.74000168
C    24.48999786   9.39999962  56.73999786
H    24.80957031   8.95970058  57.68451309
H    20.05000114   8.93000031  59.06000137
H    18.96000099   7.26999998  54.50000000
H    21.15999985   7.94000053  53.73000336
H    23.46999931   8.30999947  54.22999954
H    22.46000099   9.32999992  58.29000092
H    14.17000008   8.39999962  58.68000031
H    25.10000038   8.89000034  55.97999954
H    24.70999908  10.47999954  56.83000183
S    13.45000076   7.36000013  54.00000000
C    10.81999969   6.96000004  54.71000290
C    12.06999969   7.36999989  55.12000275
C    12.43999958   7.72000027  56.45000076
C    11.39999962   7.71000004  57.36999893
C    10.06000042   7.48000050  56.97999954
C     9.02000046   7.59999990  57.94000244
C     7.73999977   7.21000004  57.63000107
C     7.36999989   6.96000004  56.27999878
C     8.38000011   6.76999998  55.35999680
C     9.73999977   7.07999992  55.63000107
C    13.88000011   7.83999968  56.60999680
C    14.53999996   7.55000019  55.38000107
C    15.92000008   7.48000050  55.27000046
C     5.93999958   6.65999985  55.91999817
H     5.43592358   7.29187012  55.18873215
H    10.67000008   6.65000010  53.68000031
H    11.52999973   7.86999989  58.43000031
H     9.30999947   7.88999987  58.95000076
H     6.93000031   7.13999987  58.36000061
H     8.10999966   6.35999966  54.40000153
H    16.40999985   7.23000002  54.33000183
H     5.33999968   6.57999992  56.83000183
H     5.92999983   5.59999990  55.63999939
S    14.19999981   5.53999996  51.16000366
C    11.56000042   4.75000000  51.53999710
C    12.84999943   4.76999998  52.02000046
C    13.21000004   4.18000031  53.27999878
C    12.18000031   3.65999985  54.03999710
C    10.81999969   3.76999998  53.64999771
C     9.75000000   3.26999998  54.43999863
C     8.43999958   3.19999981  54.03999710
C     8.10000038   3.77999997  52.78999710
C     9.11000061   4.30000019  52.02000046
C    10.50000000   4.23999977  52.32999802
C    14.61999989   4.44000006  53.52000427
C    15.31999969   5.01999950  52.43000031
C    16.68000031   5.27999973  52.48000336
C     6.63000011   4.00000000  52.50000000
H     6.23937845   3.65909386  51.54119873
H    11.38000011   5.19000006  50.56999969
H    12.43000031   3.28000021  55.01999664
H    10.06999969   2.69000006  55.31000137
H     7.73000002   2.73000002  54.72000122
H     8.93000031   4.82999992  51.10000229
H    17.13999939   5.77000046  51.62000275
H     6.03999996   3.49000001  53.27999878
H     6.46000004   5.05999994  52.70999908
S    18.01000023   3.42999983  55.72000122
C    20.65000153   4.03999996  55.06000137
C    19.30999947   4.23999977  54.81999969
C    18.86000061   4.88999987  53.61999893
C    19.76000023   5.21000004  52.63000107
C    21.14999962   5.10999966  52.88999939
C    22.03000069   5.73999977  51.97000122
C    23.36000061   5.84000015  52.30999756
C    23.88000107   5.38999987  53.55999756
C    22.98000145   4.76999998  54.40999985
C    21.60000038   4.57999992  54.15000153
C    17.40999985   4.74000025  53.54000092
C    16.77000046   4.02999973  54.59000015
C    15.39000034   3.88999987  54.55999756
C    25.28000069   5.80999947  53.92000198
H    25.68690681   5.18179464  54.71239471
H    20.89999962   3.58999991  56.00999832
H    19.40999985   5.78999996  51.77999878
H    21.67000008   6.38000011  51.17000198
H    23.82999802   6.70000029  51.83000183
H    23.43000031   4.36999989  55.31000137
H    14.88999939   3.10999990  55.12000275
H    25.32999992   6.86999989  54.22000122
H    25.84000015   5.66999960  52.98999786
