96

S    16.45000076   8.56999969  58.62999725
C    19.15999985   9.11000061  57.90999985
C    17.90999985   8.63000011  57.61000061
C    17.61999893   8.02999973  56.35000229
C    18.64999962   7.88999987  55.44000244
C    19.96000099   8.30999947  55.75000000
C    21.01000023   8.27000046  54.78000259
C    22.27999878   8.73000050  55.02999878
C    22.56999969   9.34000015  56.27999878
C    21.53000069   9.55000019  57.15999985
C    20.22000122   9.02999973  56.97000122
C    16.18999863   7.90999985  56.06999969
C    15.43000031   8.11999989  57.25000000
C    14.04000092   8.03999996  57.25999832
C    23.95000076   9.77999973  56.69000244
H    24.34784317   9.05535793  57.40043640
H    19.32999992   9.47000027  58.92000198
H    18.42000008   7.36999989  54.51000214
H    20.86000061   7.79999971  53.81999969
H    23.02999878   8.55000019  54.27000046
H    21.68000031  10.06000042  58.09999847
H    13.50999928   8.42000008  58.11999893
H    24.50000000   9.73999977  55.73999786
H    23.90000153  10.78999996  57.12999725
S    13.02000046   7.23999977  53.53000259
C    10.29000092   6.98000002  54.22999954
C    11.59000015   7.26999998  54.58000183
C    11.90000057   7.67000008  55.91999817
C    10.88999939   7.88000011  56.84000015
C     9.55000019   7.59000015  56.46999741
C     8.51000023   7.71000004  57.43000031
C     7.21000004   7.40999985  57.09000015
C     6.94000006   6.98000002  55.76000214
C     7.88999987   6.88000011  54.75999832
C     9.23999977   7.03999996  55.18000031
C    13.34000015   7.76000023  56.07999802
C    14.09999943   7.46999979  54.92000198
C    15.48999977   7.55000019  54.91000366
C     5.51000023   6.65999985  55.41999817
H     5.08364916   7.22136164  54.58861542
H    10.01999950   6.58999968  53.25000000
H    11.18999958   8.14999962  57.84999847
H     8.78999996   8.06999969  58.41999817
H     6.44999981   7.63999987  57.83000183
H     7.55999994   6.76000023  53.73000336
H    16.04999924   7.17000008  54.06000137
H     4.96000004   6.91999960  56.32999802
H     5.44000053   5.55999994  55.41999817
S    17.04000092   9.22000027  52.70999908
C    19.70000076   9.48000050  51.95999908
C    18.45999908   8.93999958  51.68000031
C    18.18000031   8.40999985  50.38000107
C    19.20999908   8.38000011  49.45999908
C    20.52999878   8.78999996  49.75999832
C    21.61999893   8.64000034  48.86000061
C    22.89999962   8.92000008  49.27999878
C    23.13999939   9.42000008  50.58000183
C    22.11000061   9.68000031  51.45000076
C    20.78000069   9.35000038  51.05999756
C    16.72999954   8.36999989  50.24000168
C    15.97000027   8.67000008  51.39999771
C    14.63000107   9.02000046  51.36000061
C    24.56000137   9.77999973  50.98999786
H    25.02510262   9.02152348  51.61967468
H    19.81999969  10.08999920  52.85999680
H    18.96000099   8.01000023  48.47000122
H    21.48999977   8.10000038  47.93000031
H    23.75000000   8.78999996  48.61999893
H    22.23999977  10.06000042  52.45999908
H    14.14999962   9.25000000  52.29999924
H    25.22000122   9.94999981  50.13000107
H    24.56999969  10.80000019  51.39999771
S    13.56999969   8.21000004  47.62000275
C    10.86999989   8.01000023  48.34000015
C    12.15000057   8.38000011  48.67000198
C    12.46000099   8.80000019  50.00000000
C    11.46000004   8.88000011  50.96000290
C    10.15999985   8.43999958  50.63999939
C     9.06999969   8.38999939  51.56000137
C     7.77999973   8.13000011  51.18000031
C     7.50000000   7.73000002  49.84000397
C     8.48999977   7.78999996  48.88999939
C     9.81999969   8.10000038  49.29000092
C    13.89999962   8.78999996  50.18000031
C    14.63999939   8.43000031  49.02000046
C    16.02000046   8.28999996  49.03999710
C     6.03999996   7.46999979  49.52000046
H     5.68382931   8.07549000  48.68655777
H    10.70000076   7.57000017  47.36000061
H    11.72000027   9.13000011  51.97999954
H     9.26999950   8.80000019  52.55000305
H     6.94000006   8.28999996  51.84999847
H     8.36999989   7.50000000  47.84000015
H    16.57999992   8.00000000  48.15000153
H     5.46999979   7.82999992  50.38000107
H     5.91000032   6.39999962  49.33000183
