96

S    16.75000000   8.48999977  58.86000061
C    19.47000122   8.46000004  58.18999863
C    18.18000031   8.09000015  57.88999939
C    17.82999992   7.59999990  56.59000015
C    18.79999924   7.39000034  55.63000107
C    20.13999939   7.72000027  55.91999817
C    21.17000198   7.69999981  54.93999863
C    22.50000000   7.96999979  55.19000244
C    22.80999947   8.31999969  56.52999878
C    21.86000061   8.46000004  57.51999664
C    20.48999977   8.21000004  57.22999954
C    16.39000130   7.55000019  56.39999771
C    15.67000008   7.96999979  57.55000305
C    14.29999924   8.15999985  57.51999664
C    24.20000076   8.73000050  56.93999863
H    24.56939316   8.03383541  57.69299316
H    19.73999977   8.88000011  59.15000153
H    18.59000015   7.13000011  54.59999847
H    20.82999992   7.34000015  53.96999741
H    23.19000053   7.72000027  54.38999939
H    22.01999855   8.80999947  58.54000092
H    13.76999950   8.52000046  58.40000153
H    24.79999924   8.56000042  56.03000259
H    24.30999947   9.78999996  57.22000122
S    13.15000057   6.81999969  53.97999573
C    10.44999981   6.90999985  54.54999924
C    11.72999954   7.22000027  54.95999908
C    12.06999969   7.73999977  56.25999832
C    11.05000019   7.95000029  57.16999817
C     9.71000004   7.71000004  56.79000092
C     8.73000050   7.68000031  57.81999969
C     7.42000008   7.39000034  57.50999832
C     7.09999990   7.16000032  56.14999771
C     8.03999996   7.09000015  55.14999771
C     9.42000008   7.28999996  55.44000244
C    13.50999928   7.72000027  56.45000076
C    14.22999954   7.28999996  55.31000137
C    15.62000084   7.21000004  55.27999878
C     5.75000000   6.57000017  55.83000183
H     5.16377926   7.21978760  55.18021774
H    10.21000004   6.61999989  53.53000259
H    11.30000019   8.09000015  58.22000122
H     9.06000042   7.85000038  58.83999634
H     6.71999979   7.28999996  58.34000015
H     7.82000017   6.65000010  54.16999817
H    16.18000031   6.93000031  54.38000107
H     5.22000027   6.39999962  56.77999878
H     5.84000015   5.56999969  55.38999939
S    17.21999931   8.82000065  52.80000305
C    19.93000031   8.90999985  52.16999817
C    18.65999985   8.51000023  51.81999969
C    18.27999878   7.90999985  50.58000183
C    19.27999878   7.73999977  49.64000320
C    20.62000084   8.05000019  49.98000336
C    21.64999962   7.79999971  49.02000046
C    22.96999931   7.95000029  49.38000107
C    23.29999924   8.65999985  50.56999969
C    22.32999992   8.96000004  51.50000000
C    20.95999908   8.64999962  51.24000168
C    16.82999992   7.86999989  50.41999817
C    16.07999992   8.30000019  51.53999710
C    14.68999958   8.36000061  51.56999969
C    24.75000000   8.94999981  50.87999725
H    25.18530083   8.22925663  51.57219696
H    20.19000053   9.48999977  53.04999924
H    18.96999931   7.46999979  48.63999939
H    21.37000084   7.32999992  48.08000183
H    23.78999901   7.64999962  48.74000168
H    22.53000069   9.26000023  52.51999664
H    14.18000031   8.78999996  52.43000031
H    25.29999924   9.06999969  49.93000031
H    24.75000000  10.00000000  51.19999695
S    13.60000038   7.55000019  47.87000275
C    10.88999939   7.37999964  48.55999756
C    12.20000076   7.55999994  48.95000076
C    12.53000069   8.09000015  50.24000168
C    11.52999973   8.19000053  51.18000031
C    10.17000008   8.00000000  50.80999756
C     9.03999996   8.23000050  51.63999939
C     7.73999977   7.92000008  51.30000305
C     7.48000050   7.31999969  50.04000092
C     8.51000023   7.17000008  49.13999939
C     9.82999992   7.57000017  49.47999954
C    13.97999954   8.11999989  50.38000107
C    14.73000050   7.83999968  49.20999908
C    16.10000038   7.63999987  49.25000000
C     6.07999992   6.84000015  49.71000290
H     5.66613436   7.36089993  48.84659195
H    10.67000008   6.81999969  47.64999771
H    11.85999966   8.34000015  52.19999695
H     9.26999950   8.55000019  52.65999603
H     6.98000002   8.07999992  52.04999924
H     8.45000076   6.83000040  48.11000061
H    16.55999947   7.26000023  48.34000015
H     5.42999983   6.93000031  50.59000015
H     6.01999998   5.78000021  49.45999908
