96

S    17.12000084   8.10999966  58.96999741
C    19.78999901   8.48999977  58.04000092
C    18.50000000   8.06999969  57.84999847
C    18.06999969   7.53999996  56.59000015
C    19.02000046   7.39000034  55.59000015
C    20.34000015   7.86000013  55.77999878
C    21.31000137   7.82999992  54.72999954
C    22.63999939   8.09000015  54.94999695
C    23.09000015   8.53999996  56.22000122
C    22.14999962   8.76999950  57.18999863
C    20.76999855   8.43000031  57.02000046
C    16.62999916   7.46999979  56.40999603
C    15.98999977   7.79999971  57.63999939
C    14.61999989   8.03999996  57.63000107
C    24.56999969   8.73000050  56.46999741
H    24.95532990   8.18768215  57.33342743
H    20.07999802   8.92000008  59.00000000
H    18.70000076   6.94999981  54.65000153
H    20.96999931   7.26999998  53.86000061
H    23.36000061   7.69000006  54.25000000
H    22.50000000   8.98999977  58.18999863
H    14.17000008   8.36000061  58.55999756
H    25.06000137   8.47999954  55.52000046
H    24.75000000   9.80000019  56.59000015
S    13.36999989   6.94000006  54.02000046
C    10.71000004   6.90999985  54.73999786
C    11.98999977   7.30999994  55.06999969
C    12.38999939   7.75000000  56.37000275
C    11.39999962   7.88999987  57.32999802
C    10.06000042   7.55000019  57.02000046
C     9.07999992   7.53999996  58.04999924
C     7.79999971   7.11999989  57.76000214
C     7.49000025   6.51999998  56.52000046
C     8.38000011   6.57000017  55.47000122
C     9.70000076   7.05999947  55.70999908
C    13.83999920   7.73999977  56.51000214
C    14.50000000   7.25000000  55.35999680
C    15.88000107   7.17999983  55.26000214
C     6.09000015   6.01999998  56.25999832
H     5.57227325   6.61574030  55.50823212
H    10.42000008   6.38000011  53.82999802
H    11.68000031   8.21000004  58.33000183
H     9.35999966   7.85000038  59.06000137
H     6.97000027   7.11000013  58.46000290
H     8.10999966   6.15999985  54.50000000
H    16.27000046   6.83000040  54.31000137
H     5.46999979   5.96000004  57.15999985
H     6.28999996   5.01999950  55.84999847
S    13.92000008   4.99000025  51.26999664
C    11.28999901   4.26000023  51.84999847
C    12.63000011   4.17000008  52.15999985
C    13.09000015   3.51999998  53.34999847
C    12.20000076   2.93000007  54.22999954
C    10.81999969   3.01999998  53.94000244
C     9.82999992   2.52999997  54.84000397
C     8.47999954   2.64999986  54.55999756
C     8.07999992   3.45000005  53.46000290
C     8.97000027   3.88000011  52.50000000
C    10.36000061   3.72000003  52.77000046
C    14.52000046   3.65999985  53.52000427
C    15.08999920   4.44999981  52.49000168
C    16.43000031   4.82999992  52.51999664
C     6.61999989   3.65000010  53.15999985
H     6.22230101   3.01084113  52.37170410
H    11.03000069   4.75000000  50.90999985
H    12.51000023   2.32999992  55.07999802
H    10.29000092   2.33999991  55.79999924
H     7.83999968   2.23000002  55.33000183
H     8.71000004   4.41000032  51.59000015
H    16.72999954   5.47999954  51.70000076
H     6.07999992   3.51000023  54.09999847
H     6.42000008   4.65999985  52.76000214
S    17.81999969   3.05000019  55.79999924
C    20.50000000   3.67000008  55.13000107
C    19.14999962   3.79999995  54.89999771
C    18.68000031   4.48000002  53.73000336
C    19.63999939   4.92999983  52.84000015
C    21.02999878   4.73000002  53.01000214
C    22.01999855   5.23999977  52.12999725
C    23.36999893   5.15999985  52.41000366
C    23.81999969   4.50000000  53.57999802
C    22.88999939   4.05000019  54.47999954
C    21.48999977   4.19000006  54.26000214
C    17.22999954   4.40000010  53.57999802
C    16.64999962   3.58000016  54.58000183
C    15.31999969   3.19000006  54.56999969
C    25.26000023   4.03999996  53.64999771
H    25.75895882   4.46767902  54.51961136
H    20.78000069   2.94999981  55.90000153
H    19.26000023   5.47999954  51.98999786
H    21.70999908   5.91000032  51.32999802
H    24.04999924   5.40000010  51.59999847
H    23.11000061   3.55999994  55.43000031
H    14.88000011   2.61000013  55.38000107
H    25.81999969   4.25000000  52.72999573
H    25.23999977   2.94999981  53.80000305
