96

S    17.09000015   8.06999969  59.13000107
C    19.78000069   8.27999973  58.34000015
C    18.47999954   7.96000004  58.02999878
C    18.09000015   7.57000017  56.70999908
C    19.07999992   7.57999992  55.73999786
C    20.43999863   7.82999992  56.03000259
C    21.44000053   7.69000006  55.02999878
C    22.75000000   7.92999983  55.35999680
C    23.12999916   8.13000011  56.72000122
C    22.19000053   8.23999977  57.70999908
C    20.81999969   8.01000023  57.41000366
C    16.64999962   7.46999979  56.52999878
C    16.00000000   7.79999971  57.75000000
C    14.63000107   7.96000004  57.88000107
C    24.60000038   8.31999969  57.04000092
H    24.83508873   8.39836311  58.10145950
H    20.09000015   8.69999981  59.29000092
H    18.64999962   7.26000023  54.79000092
H    21.24000168   7.40000010  54.00000000
H    23.52000046   7.79999971  54.61000061
H    22.46999931   8.61999989  58.68999863
H    14.17000008   8.22000027  58.82999802
H    25.15999985   7.50000000  56.56999969
H    24.96000099   9.26000023  56.60999680
S    13.31999969   7.23000002  54.18000031
C    10.67000008   7.07000017  55.04000092
C    11.97999954   7.32999992  55.34000015
C    12.39999962   7.68000031  56.66999817
C    11.44999981   7.76000023  57.67000198
C    10.07999992   7.53999996  57.39999771
C     9.06000042   7.44999981  58.37999725
C     7.76999998   7.16000032  57.98999786
C     7.40999985   6.80000019  56.66999817
C     8.38999939   6.70000029  55.70999908
C     9.71000004   7.07999992  56.07999802
C    13.85000038   7.82000017  56.72999954
C    14.47000027   7.51999950  55.48999786
C    15.82999992   7.20000029  55.43000031
C     6.01000023   6.32999992  56.36000061
H     5.51814842   6.86462116  55.54737473
H    10.36999893   6.75000000  54.03999710
H    11.73999977   7.92000008  58.70999908
H     9.30999947   7.75000000  59.40000153
H     7.05999947   7.25000000  58.81000137
H     8.23999977   6.32000017  54.69999695
H    16.22999954   6.75000000  54.52999878
H     5.45000029   6.50000000  57.29000092
H     5.97000027   5.23999977  56.19999695
S    17.19000053   8.71999931  52.94000244
C    19.93000031   8.92000008  52.25999832
C    18.61999893   8.73000050  51.88999939
C    18.27000046   8.55000019  50.51000214
C    19.27000046   8.55000019  49.55999756
C    20.63999939   8.60999966  49.93999863
C    21.68999863   8.56999969  48.97999573
C    22.95000076   8.92000008  49.38000107
C    23.31000137   9.28999996  50.70000076
C    22.32999992   9.19000053  51.65999985
C    20.97999954   8.89000034  51.31000137
C    16.82999992   8.57999992  50.31999969
C    16.11999893   8.78000069  51.52999878
C    14.73000050   8.85999966  51.56000137
C    24.69000053   9.78999996  51.06999969
H    25.15004730   9.20963383  51.86977005
H    20.12000084   9.30000019  53.26000214
H    18.96999931   8.55000019  48.50999832
H    21.47000122   8.55000019  47.90999985
H    23.71000099   9.04999924  48.61000061
H    22.49000168   9.63999939  52.63000107
H    14.18000031   9.07999992  52.47000122
H    25.34000015   9.57999992  50.20999908
H    24.76000023  10.85999966  51.26999664
S    13.59000015   7.99000025  47.81999969
C    10.93999958   7.59000015  48.54999924
C    12.20999908   7.96000004  48.93000031
C    12.57999992   8.27999973  50.27999878
C    11.54000092   8.46000004  51.17000198
C    10.21000004   8.09000015  50.86999893
C     9.13000011   8.22000027  51.79000092
C     7.88000011   7.76000023  51.45999908
C     7.57000017   7.28999996  50.14999771
C     8.59000015   7.23000002  49.22999954
C     9.92999935   7.57999992  49.54999924
C    14.01999950   8.47000027  50.41999817
C    14.68999958   8.27999973  49.18000031
C    16.07999992   8.34999943  49.15000153
C     6.17999983   6.81999969  49.79000092
H     5.70182133   7.49087811  49.07630157
H    10.71000004   7.11999989  47.58999634
H    11.77000046   8.82000065  52.16999817
H     9.26999950   8.64000034  52.77999878
H     7.14999962   7.63999987  52.25000000
H     8.32999992   7.00000000  48.20000076
H    16.55999947   8.21000004  48.18999863
H     5.60999966   6.51000023  50.66999817
H     6.44000006   5.89999962  49.25000000
