96

S    16.65999985   8.57999992  58.70999908
C    19.38999939   8.69999981  58.23999786
C    18.15000153   8.30000019  57.78999710
C    17.80999947   7.90000010  56.45999908
C    18.88000107   7.64999962  55.61000061
C    20.20000076   7.90000010  56.05999756
C    21.32999802   7.48000050  55.31999969
C    22.60000038   7.86000013  55.70000076
C    22.88999939   8.52000046  56.93000031
C    21.80999947   8.78999996  57.72999573
C    20.46999931   8.48999977  57.35000229
C    16.38000107   7.73999977  56.22000122
C    15.62000084   8.25000000  57.30999756
C    14.22999954   8.31999969  57.29999924
C    24.31999969   8.82999992  57.30999756
H    24.71161079   8.09661674  58.01490021
H    19.63999939   9.13999939  59.20000076
H    18.75000000   7.23999977  54.61000061
H    21.15999985   7.13000011  54.31000137
H    23.35000038   7.57000017  54.97000122
H    22.00000000   9.06000042  58.76999664
H    13.68000031   8.52999973  58.20000076
H    24.84999847   8.88000011  56.35000229
H    24.33000183   9.88000011  57.63000107
S    13.22000027   6.96000004  53.70999908
C    10.55999947   6.70000029  54.40999985
C    11.78999996   7.22000027  54.72000122
C    12.10000038   7.79999971  56.00000000
C    11.03999996   8.03999996  56.86000061
C     9.72999954   7.63000011  56.53999710
C     8.67000008   7.94000053  57.43999863
C     7.36999989   7.73000002  57.04000092
C     7.09999990   7.11999989  55.79000092
C     8.10999966   6.78999996  54.92000198
C     9.47000027   6.98999977  55.27999878
C    13.53999996   7.94000053  56.13999939
C    14.27999973   7.40999985  55.06000137
C    15.67000008   7.30999994  55.10000229
C     5.69999981   6.63000011  55.48999786
H     5.14624977   7.30443954  54.83685684
H    10.38000011   6.23000050  53.43999863
H    11.17000008   8.56000042  57.80000305
H     8.85999966   8.23999977  58.47000122
H     6.53999996   7.83999968  57.72999573
H     7.79999971   6.34000015  53.96999741
H    16.27000046   7.11000013  54.22000122
H     5.10999966   6.65999985  56.40999603
H     5.68000031   5.65999985  54.98000336
S    13.53999996   4.71000004  50.87999725
C    10.82999992   4.21999979  51.52000046
C    12.15999985   4.19999981  51.86999893
C    12.56000042   3.74000025  53.16999817
C    11.64000034   3.30000019  54.09000015
C    10.27999973   3.28000021  53.68999863
C     9.21000004   2.91000009  54.54999924
C     7.86999989   2.96000004  54.22000122
C     7.42999983   3.47000003  52.97000122
C     8.43000031   3.94000006  52.15999985
C     9.81999969   3.77999997  52.42000198
C    14.01000023   3.76999998  53.29999924
C    14.65000057   4.44999981  52.22999954
C    16.00000000   4.78999996  52.18000031
C     5.97000027   3.78999996  52.72999573
H     5.54123592   3.39696622  51.80815887
H    10.47999954   4.67999983  50.61000061
H    11.92999935   3.03999996  55.11000061
H     9.56999969   2.61000013  55.52999878
H     7.14999962   2.84000015  55.01999664
H     8.10000038   4.46999979  51.26999664
H    16.38000107   5.32999992  51.31999969
H     5.47999954   3.35000014  53.61000061
H     5.95000029   4.88999987  52.67000198
S    17.29999924   3.53999996  55.68000031
C    19.96000099   4.00000000  55.04000092
C    18.63999939   4.13999987  54.68000031
C    18.20000076   4.69000006  53.43000031
C    19.19000053   5.18000031  52.60000229
C    20.56999969   5.01999950  52.87000275
C    21.63999939   5.35000038  51.97999954
C    22.96999931   5.12000036  52.23999786
C    23.35000038   4.81999969  53.57999802
C    22.34000015   4.41000032  54.41999817
C    20.95000076   4.48999977  54.15000153
C    16.77999878   4.39000034  53.26000214
C    16.15999985   3.72000003  54.34000015
C    14.81999969   3.33999991  54.36000061
C    24.82000160   4.59999990  53.88000107
H    25.14845085   4.82848644  54.89391327
H    20.29999924   3.51999998  55.94999695
H    18.89999962   5.58000040  51.63000107
H    21.37000084   5.72000027  50.98999786
H    23.71999931   5.17000008  51.45999908
H    22.67000008   3.76999998  55.24000168
H    14.44000053   2.87999988  55.27000046
H    25.46999931   5.07000017  53.13999939
H    25.10999870   3.58000016  53.61000061
