96

S    16.94000053   8.43999958  58.59000397
C    19.63999939   8.59000015  57.85999680
C    18.34000015   8.28999996  57.50999832
C    17.89999962   8.05000019  56.17000198
C    18.90999985   7.92999983  55.22999573
C    20.26000023   8.14000034  55.56000137
C    21.35000038   7.92999983  54.66999817
C    22.67999840   8.10999966  54.99000168
C    23.02000046   8.63000011  56.26999664
C    22.01000023   8.89000034  57.15999985
C    20.65000153   8.63000011  56.86000061
C    16.45000076   8.00000000  56.04999924
C    15.77999973   8.26000023  57.27000427
C    14.39000034   8.32999992  57.31999969
C    24.43000031   9.07999992  56.59999847
H    24.79386139   8.45215988  57.41333771
H    19.81999969   8.93999958  58.87000275
H    18.77000046   7.31999969  54.34000015
H    21.07999992   7.64999962  53.64999771
H    23.38000107   8.03999996  54.15999985
H    22.29999924   9.17000008  58.16999817
H    13.94999981   8.40999985  58.30999756
H    25.09000015   9.04999924  55.72000122
H    24.34000015  10.11000061  56.93999863
S    13.10999966   7.40000010  53.74000168
C    10.42000008   7.17999983  54.45999908
C    11.71000004   7.53000021  54.80999756
C    12.10000038   7.96000004  56.11000061
C    11.14999962   7.95000029  57.11999893
C     9.81000042   7.59000015  56.83000183
C     8.78000069   7.55999994  57.81000137
C     7.44999981   7.28999996  57.55000305
C     7.09000015   7.02000046  56.20999908
C     8.07999992   6.93000031  55.25000000
C     9.44999981   7.18999958  55.50000000
C    13.53999996   8.11999989  56.22000122
C    14.25000000   7.73000002  55.06000137
C    15.62999916   7.69999981  54.94999695
C     5.69000006   6.56000042  55.87999725
H     5.27923775   7.12656832  55.04430771
H    10.08999920   6.88000011  53.46000290
H    11.56999969   8.15999985  58.09999847
H     9.02000046   7.85000038  58.82999802
H     6.69000053   7.23000002  58.31999969
H     7.79999971   6.76999998  54.20999908
H    16.07999992   7.35000038  54.02000046
H     4.99000025   6.67999983  56.70999908
H     5.73000002   5.49000025  55.63999939
S    17.28999901   9.44000053  52.65999603
C    20.00000000   9.30999947  52.11000061
C    18.71999931   9.02000046  51.70000076
C    18.37000084   8.52000046  50.40000153
C    19.40000153   8.43999958  49.47999954
C    20.76000023   8.55000019  49.85000229
C    21.84999847   8.32999992  48.96999741
C    23.12999916   8.78999996  49.20000076
C    23.38999939   9.23999977  50.52000046
C    22.39999962   9.28999996  51.46999741
C    21.02999878   9.01000023  51.18999863
C    16.94000053   8.26000023  50.27000046
C    16.23999977   8.76999950  51.38999939
C    14.85000038   8.76999950  51.43000031
C    24.79000092   9.63000011  50.93000031
H    25.23105049   8.89728832  51.60580444
H    20.17000008   9.77999973  53.06999969
H    19.23999977   8.28999996  48.41999817
H    21.63999939   7.99000025  47.95999908
H    23.81999969   8.86999989  48.36999893
H    22.59000015   9.71000004  52.45999908
H    14.27999973   9.22999954  52.22999954
H    25.51000214   9.72999954  50.11000061
H    24.64999962  10.64000034  51.35000229
S    13.83999920   7.64999962  47.72999573
C    11.10000038   7.50999975  48.46000290
C    12.39999962   7.86000013  48.75000000
C    12.69999981   8.36999989  50.05000305
C    11.69000053   8.69000053  50.93999863
C    10.34999943   8.43000031  50.58000183
C     9.30999947   8.52000046  51.55000305
C     8.01000023   8.17000008  51.25000000
C     7.67000008   7.59999990  49.99000168
C     8.67000008   7.44000006  49.06000137
C    10.01999950   7.77999973  49.33000183
C    14.14000034   8.36000061  50.28999710
C    14.86999989   7.92999983  49.15000153
C    16.25000000   7.79999971  49.13999939
C     6.25999975   7.13999987  49.68999863
H     5.74733210   7.74523258  48.94235992
H    10.84000015   6.98999977  47.54000092
H    11.87000084   9.06000042  51.95000076
H     9.63999939   8.96000004  52.48000336
H     7.21000004   8.27000046  51.97999954
H     8.43999958   6.94999981  48.11999893
H    16.76000023   7.59999990  48.20000076
H     5.61999989   7.09999990  50.58000183
H     6.25000000   6.07999992  49.43000031
