96

S    17.05000114   8.97999954  58.81000137
C    19.78000069   8.93999958  58.11999893
C    18.46999931   8.64000034  57.80000305
C    18.06999969   8.03999996  56.56999969
C    19.05999947   7.90999985  55.61999893
C    20.42000008   8.23999977  55.86000061
C    21.40000153   8.23999977  54.82999802
C    22.65999985   8.73999977  55.06999969
C    23.02999878   9.22999954  56.35000229
C    22.09000015   9.32999992  57.35000229
C    20.79000092   8.80999947  57.12999725
C    16.61999893   8.05000019  56.42000198
C    15.90000057   8.61999989  57.50000000
C    14.52000046   8.76999950  57.50999832
C    24.40000153   9.77000046  56.69000244
H    24.96009064   9.06102562  57.29972076
H    19.97999954   9.57999992  58.97999573
H    18.77000046   7.76000023  54.58000183
H    21.04999924   7.83999968  53.88999939
H    23.40999985   8.63000011  54.29999924
H    22.27999878   9.88000011  58.27000046
H    14.01000023   9.11000061  58.40999985
H    25.05000114   9.89999962  55.80999756
H    24.40000153  10.75000000  57.18000031
S    13.50999928   7.32999992  53.96999741
C    10.77999973   7.44999981  54.54000092
C    12.05999947   7.75000000  54.92000198
C    12.32999992   8.25000000  56.23000336
C    11.31999969   8.47999954  57.14000320
C    10.01000023   8.07999992  56.77000046
C     8.93999958   8.27999973  57.69000244
C     7.63999987   8.01000023  57.36000061
C     7.32999992   7.55000019  56.05999756
C     8.34999943   7.23999977  55.19000244
C     9.72000027   7.53999996  55.47999954
C    13.78000069   8.28999996  56.42000198
C    14.53999996   7.77999973  55.34000015
C    15.92000008   7.57000017  55.31000137
C     5.86999989   7.27999973  55.77000046
H     5.39181995   7.95087910  55.05630112
H    10.60999966   7.05999947  53.54000092
H    11.52999973   8.93000031  58.11000061
H     9.26000023   8.60000038  58.68000031
H     6.90999985   8.17000008  58.15999985
H     8.02999973   6.69000053  54.31000137
H    16.36000061   7.07999992  54.45000076
H     5.29999971   7.30999994  56.70999908
H     5.75000000   6.24000025  55.43000031
S    14.01999950   5.47999954  50.84999847
C    11.36000061   5.28999996  51.52000046
C    12.64999962   4.94000006  51.84000015
C    13.00000000   4.19999981  53.02000046
C    12.01000023   3.67000008  53.81999969
C    10.65999985   3.98000002  53.50000000
C     9.57999992   3.53999996  54.31999969
C     8.27999973   3.72000003  53.89999771
C     7.92999983   4.39000034  52.70000076
C     8.97000027   4.90000010  51.95999908
C    10.32999992   4.75000000  52.32999802
C    14.44000053   4.28000021  53.22999954
C    15.07999992   4.97000027  52.16999817
C    16.45000076   5.19000006  52.18000031
C     6.48000002   4.80999994  52.58999634
H     5.87682247   4.38422775  51.78812790
H    11.10999966   5.77000046  50.58000183
H    12.05000019   2.87999988  54.55999756
H     9.78999996   2.98000002  55.21999741
H     7.53000021   3.40000010  54.61999893
H     8.64999962   5.40999985  51.04999924
H    16.95000076   5.51999998  51.26999664
H     5.88999987   4.90000010  53.50999832
H     6.52999973   5.80999947  52.14000320
S    17.65999985   3.60000014  55.63999939
C    20.39999962   3.94000006  54.94999695
C    19.06999969   4.13000011  54.68999863
C    18.63999939   4.77999973  53.48999786
C    19.57999992   5.27999973  52.61000061
C    20.95999908   5.21000004  52.88999939
C    21.87000084   5.82999992  51.97999954
C    23.19999886   5.82000017  52.32999802
C    23.64000130   5.25000000  53.54999924
C    22.78000069   4.46000004  54.27000046
C    21.37000084   4.42999983  54.03999710
C    17.19000053   4.77999973  53.29999924
C    16.53000069   4.15999985  54.38999939
C    15.17000008   3.86999989  54.36000061
C    24.92000198   5.71000004  54.22000122
H    25.33344078   4.97578573  54.91144562
H    20.63999939   3.40000010  55.86000061
H    19.34000015   5.98000002  51.81999969
H    21.38000107   6.48000002  51.25999832
H    23.88000107   6.34000015  51.65999985
H    23.11000061   3.93000007  55.15999603
H    14.60999966   3.25999999  55.05000305
H    24.84999847   6.71999979  54.64000320
H    25.59000015   5.97000027  53.40000153
