96

S    16.79999924   8.89000034  58.72000122
C    19.48999977   8.78000069  58.06999969
C    18.20000076   8.39999962  57.75000000
C    17.85000038   7.82999992  56.49000168
C    18.86999893   7.55999994  55.59999847
C    20.22999954   7.82000017  55.90000153
C    21.31000137   7.59000015  55.00000000
C    22.60999870   7.79999971  55.38999939
C    22.90999985   8.39999962  56.63999939
C    21.87999916   8.69999981  57.50999832
C    20.52999878   8.43000031  57.16999817
C    16.39999962   7.76000023  56.31000137
C    15.72999954   8.36000061  57.41000366
C    14.34000015   8.43000031  57.47000122
C    24.34000015   8.63000011  57.04999924
H    24.86637878   7.89733458  57.66173935
H    19.67000008   9.27999973  59.02000046
H    18.64999962   7.30000019  54.55999756
H    21.04999924   7.16000032  54.03999710
H    23.38000107   7.59999990  54.65999985
H    22.09000015   9.28999996  58.40000153
H    13.89000034   9.04999924  58.25000000
H    24.93999863   8.84000015  56.14999771
H    24.30999947   9.50000000  57.70999908
S    13.12999916   6.77999973  54.13000107
C    10.39000034   7.11999989  54.71000290
C    11.71000004   7.30999994  55.05000305
C    12.09000015   7.88999987  56.31000137
C    11.10999966   8.38000011  57.15000153
C     9.75000000   8.10999966  56.86999893
C     8.71999931   8.26000023  57.84000015
C     7.44000006   7.86000013  57.54000092
C     7.00999975   7.44999981  56.25000000
C     8.00000000   7.44000006  55.28999710
C     9.38000011   7.62000036  55.56999969
C    13.53999996   7.86999989  56.46999741
C    14.26000023   7.31999969  55.38000107
C    15.64000034   7.22000027  55.27000046
C     5.61999989   6.86999989  56.07999802
H     5.12342262   7.50845623  55.34932327
H    10.18000031   6.61999989  53.76999664
H    11.32999992   8.71000004  58.15999985
H     8.97000027   8.73000050  58.77999878
H     6.75000000   7.68000031  58.36000061
H     7.81000042   6.93000031  54.34999847
H    16.03999901   6.80999994  54.34999847
H     5.01999950   6.86999989  57.00000000
H     5.73000002   5.82999992  55.77000046
S    17.10000038   8.67999935  52.85999680
C    19.78999901   8.82000065  52.04000092
C    18.47999954   8.47999954  51.77000046
C    18.11000061   8.10000038  50.44000244
C    19.05999947   8.01000023  49.43999863
C    20.40999985   8.32999992  49.69999695
C    21.47000122   8.17000008  48.75999832
C    22.79999924   8.43999958  48.96999741
C    23.12000084   8.93000031  50.26000214
C    22.15999985   9.01000023  51.24000168
C    20.78000069   8.71000004  51.04000092
C    16.65999985   8.18000031  50.27999878
C    16.00000000   8.56000042  51.46999741
C    14.60999966   8.56999969  51.58000183
C    24.56000137   9.15999985  50.63999939
H    24.95936584   8.46824455  51.38167572
H    20.03999901   8.97000027  53.09000015
H    18.84000015   7.71000004  48.40999985
H    21.27000046   7.72000027  47.78999710
H    23.51000023   8.30000019  48.15999985
H    22.46999931   9.28999996  52.25000000
H    14.14000034   8.76999950  52.54000092
H    25.20000076   9.19000053  49.75000000
H    24.70000076  10.19999981  50.96000290
S    13.43000031   7.48000050  47.88000107
C    10.80999947   7.17999983  48.80000305
C    12.10000038   7.60999966  49.03999710
C    12.44999981   8.09000015  50.34999847
C    11.44999981   8.23999977  51.29000092
C    10.10000038   7.88000011  51.04000092
C     9.04999924   8.10999966  51.97000122
C     7.73000002   7.85000038  51.66999817
C     7.46000004   7.31999969  50.38000107
C     8.39999962   7.17000008  49.38000107
C     9.76000023   7.39000034  49.72999954
C    13.89000034   8.22000027  50.43000031
C    14.52999973   7.94000053  49.19000244
C    15.92000008   7.90999985  49.12000275
C     6.06999969   6.85999966  50.02999878
H     5.69460058   7.33456135  49.12337494
H    10.42000008   6.97000027  47.81000137
H    11.75000000   8.63000011  52.25999832
H     9.44000053   8.53999996  52.88999939
H     6.98999977   7.88999987  52.47000122
H     8.10000038   6.93000031  48.36000061
H    16.40999985   7.76999998  48.15999985
H     5.42000008   7.03000021  50.90000153
H     6.05000019   5.78999996  49.81999969
