96

S    16.87999916   8.34000015  58.67000198
C    19.50000000   8.80000019  57.84999847
C    18.23999977   8.34000015  57.52999878
C    17.95999908   7.92999983  56.18000031
C    18.97999954   7.90999985  55.25000000
C    20.32999992   8.14000034  55.63000107
C    21.45999908   8.10000038  54.77000427
C    22.72999954   8.45000076  55.14999771
C    22.93000031   9.02000046  56.44000244
C    21.87999916   9.10000038  57.32999802
C    20.59000015   8.64999962  56.95000076
C    16.52000046   8.10000038  56.06999969
C    15.80000019   8.05000019  57.29000092
C    14.42000008   8.10000038  57.43999863
C    24.26000214   9.52999973  56.93000031
H    24.76963234   8.90003777  57.65905762
H    19.63999939   9.28999996  58.81000137
H    18.68999863   7.72000027  54.22999954
H    21.25999832   7.82000017  53.73000336
H    23.61999893   8.25000000  54.54999924
H    22.03000069   9.40999985  58.36000061
H    14.07999992   8.21000004  58.47000122
H    24.90999985   9.63999939  56.04999924
H    24.10000038  10.47999954  57.43999863
S    13.19000053   7.67000008  53.74000168
C    10.52000046   7.28999996  54.40999985
C    11.79999924   7.51999950  54.84000397
C    12.15000057   7.81000042  56.19999695
C    11.13000011   7.77999973  57.14000320
C     9.80000019   7.49000025  56.76000214
C     8.78000069   7.27999973  57.72999573
C     7.50999975   6.94999981  57.35000229
C     7.16000032   6.84000015  55.97999954
C     8.13000011   6.97000027  55.01999664
C     9.47000027   7.31999969  55.37000275
C    13.59000015   8.01999950  56.31999969
C    14.29999924   7.95000029  55.10000229
C    15.67999935   8.03999996  54.94999695
C     5.75000000   6.50000000  55.54999924
H     5.25870466   7.26186419  54.94477844
H    10.25000000   6.94000006  53.41999817
H    11.39999962   7.99000025  58.16999817
H     9.10000038   7.62000036  58.72000122
H     6.77999973   6.70000029  58.11999893
H     7.92000008   6.71999979  53.97999573
H    16.02000046   7.85000038  53.93000031
H     5.23999977   6.40999985  56.52000046
H     5.69000006   5.51999998  55.06000137
S    17.52000046   9.44999981  52.44999695
C    20.22000122   9.22999954  51.76000214
C    18.89999962   8.96000004  51.45999908
C    18.55999947   8.34000015  50.21999741
C    19.56999969   8.11999989  49.31000137
C    20.90999985   8.53999996  49.51000214
C    21.97999954   8.38000011  48.57999802
C    23.29000092   8.60000038  48.93000031
C    23.61999893   9.09000015  50.21999741
C    22.60000038   9.44000053  51.05999756
C    21.22999954   9.15999985  50.76000214
C    17.12000084   8.38000011  50.01999664
C    16.45000076   9.01000023  51.10000229
C    15.06000042   9.06999969  51.14999771
C    25.00999832   9.61999989  50.52999878
H    25.37332535   9.10706997  51.42050171
H    20.38999939   9.56999969  52.77000046
H    19.25000000   7.73999977  48.34000015
H    21.77999878   7.96000004  47.60000229
H    24.04000092   8.47999954  48.15999985
H    22.85000038   9.84000015  52.04999924
H    14.60000038   9.23999977  52.11999893
H    25.72999954   9.35000038  49.75000000
H    25.07999802  10.71000004  50.63999939
S    13.89999962   7.68000031  47.60000229
C    11.23000050   7.76999998  48.25000000
C    12.51000023   8.14999962  48.60000229
C    12.84000015   8.64999962  49.89999771
C    11.79999924   8.78999996  50.80999756
C    10.46000004   8.42000008  50.52999878
C     9.42000008   8.38999939  51.51000214
C     8.21000004   7.83999968  51.16000366
C     7.92000008   7.36999989  49.85000229
C     8.89999962   7.44000006  48.88999939
C    10.21000004   7.86999989  49.22999954
C    14.27999973   8.67999935  50.05000305
C    14.96999931   8.15999985  48.92000198
C    16.34000015   7.92999983  48.94000244
C     6.50000000   6.98000002  49.50000000
H     6.10884666   7.61295748  48.70346832
H    10.93999958   7.18999958  47.37999725
H    12.02999973   9.06000042  51.84000015
H     9.55000019   8.84000015  52.49000168
H     7.42999983   8.18000031  51.83000183
H     8.69000053   7.07999992  47.88000107
H    16.93000031   7.36999989  48.22999954
H     5.88999987   6.86999989  50.40000153
H     6.56000042   6.00000000  49.02000046
