96

S    17.13999939   8.52999973  59.05000305
C    19.82999992   8.69000053  58.34999847
C    18.53999901   8.42000008  57.95999908
C    18.15999985   7.96000004  56.65999985
C    19.18000031   7.88000011  55.72999954
C    20.53999901   8.05000019  56.07999802
C    21.61000061   7.86000013  55.14999771
C    22.88999939   8.18000031  55.54000092
C    23.21000099   8.73999977  56.79999924
C    22.21999931   8.82000065  57.76000214
C    20.86999893   8.48999977  57.41000366
C    16.72000122   7.77999973  56.56000137
C    16.02000046   8.02999973  57.77000046
C    14.63000107   8.13000011  57.78999710
C    24.61999893   9.11000061  57.18000031
H    24.99602699   8.49274921  57.99590683
H    19.98999977   9.03999996  59.36000061
H    19.03000069   7.60999966  54.68999863
H    21.40999985   7.59000015  54.12000275
H    23.75000000   8.09000015  54.87999725
H    22.46999931   9.32999992  58.68000031
H    14.04999924   8.47000027  58.63999939
H    25.27000046   9.02000046  56.30000305
H    24.51999855  10.14999962  57.50999832
S    13.48000050   7.11000013  54.12000275
C    10.78999996   7.00000000  54.81999969
C    12.07999992   7.30000019  55.19000244
C    12.43000031   7.77999973  56.49000168
C    11.39000034   7.95000029  57.37999725
C    10.03000069   7.69999981  57.05999756
C     9.00000000   7.68000031  58.02999878
C     7.69000006   7.39000034  57.70999908
C     7.40999985   6.88000011  56.40999603
C     8.39999962   6.75000000  55.45999908
C     9.73999977   7.14999962  55.76000214
C    13.88000011   7.76999998  56.66999817
C    14.56999969   7.40000010  55.48999786
C    15.95999908   7.40999985  55.44000244
C     6.01000023   6.40999985  56.09000397
H     5.55373096   7.06588697  55.34856415
H    10.52999973   6.53999996  53.87000275
H    11.65999985   8.02999973  58.43000031
H     9.35000038   7.79999971  59.05000305
H     6.93000031   7.42000008  58.47999954
H     8.31999969   6.02999973  54.65999985
H    16.46999931   7.02000046  54.55999756
H     5.36000013   6.43000031  56.97000122
H     6.00000000   5.36999989  55.75000000
S    17.56000137   8.69000053  52.84000015
C    20.28000069   8.89999962  52.19999695
C    19.01000023   8.56000042  51.81999969
C    18.67000008   8.40999985  50.43000031
C    19.70000076   8.34000015  49.51000214
C    21.04999924   8.47999954  49.93000031
C    22.15999985   8.23000050  49.08000183
C    23.43000031   8.55000019  49.50000000
C    23.65999985   9.25000000  50.70999908
C    22.65999985   9.30999947  51.65999985
C    21.35999870   8.89999962  51.26999664
C    17.23999977   8.18000031  50.26000214
C    16.50000000   8.38999939  51.45000076
C    15.11999989   8.55000019  51.56000137
C    25.07999802   9.65999985  51.03000259
H    25.56096458   8.91733456  51.66657257
H    20.43999863   9.25000000  53.20999908
H    19.61000061   8.03999996  48.47000122
H    21.86000061   7.99000025  48.06000137
H    24.27999878   8.39999962  48.82999802
H    22.77000046   9.65999985  52.68000031
H    14.70999908   8.78999996  52.52999878
H    25.65999985   9.77999973  50.11000061
H    25.03000069  10.62999916  51.53999710
S    14.00000000   7.68000031  47.90000153
C    11.31000042   7.42999983  48.62999725
C    12.60000038   7.78999996  48.96999741
C    12.93000031   8.34000015  50.25000000
C    11.90999985   8.52000046  51.17000198
C    10.59000015   8.11999989  50.84999847
C     9.59000015   8.10000038  51.86000061
C     8.28999996   7.82999992  51.49000168
C     7.97999954   7.36999989  50.18000031
C     8.93999958   7.16000032  49.22000122
C    10.25000000   7.62000036  49.54999924
C    14.37999916   8.40999985  50.38000107
C    15.11999989   8.13000011  49.20000076
C    16.50000000   8.00000000  49.09000015
C     6.53999996   7.03000021  49.86999893
H     6.11248541   7.80665112  49.23585129
H    11.13999939   7.13999987  47.60000229
H    12.07999992   8.67999935  52.22999954
H     9.77000046   8.46000004  52.87000275
H     7.49000025   7.83999968  52.22000122
H     8.75000000   6.96000004  48.16999817
H    17.04000092   7.76999998  48.16999817
H     5.88999987   6.67000008  50.68000031
H     6.67999983   6.11999989  49.27000046
