96

S    17.05000114   8.53999996  58.69999695
C    19.73999977   8.65999985  57.95000076
C    18.46999931   8.21000004  57.69000244
C    18.12999916   7.46999979  56.51000214
C    19.12999916   7.27999973  55.56999969
C    20.45000076   7.73000002  55.77000046
C    21.52000046   7.60999966  54.82999802
C    22.82999992   7.78999996  55.20000076
C    23.13999939   8.34999943  56.46999741
C    22.11000061   8.76999950  57.28000259
C    20.76000023   8.43999958  56.98999786
C    16.69000053   7.39000034  56.35000229
C    15.95999908   7.97999954  57.41000366
C    14.57999992   8.05000019  57.45999908
C    24.56999969   8.73999977  56.76000214
H    25.06733513   8.03662586  57.42785263
H    19.96000099   9.19999981  58.87000275
H    18.78000069   6.84999990  54.64000320
H    21.21999931   7.13000011  53.90999603
H    23.62999916   7.49000025  54.54000092
H    22.34000015   9.40999985  58.13000107
H    14.19999981   8.52000046  58.36000061
H    25.17000008   8.88000011  55.84999847
H    24.51999855   9.68999958  57.31999969
S    13.53000069   6.83000040  53.79000092
C    10.84000015   6.78999996  54.41999817
C    12.10999966   7.14999962  54.80999756
C    12.43999958   7.71000004  56.07999802
C    11.39999962   8.09000015  56.90000153
C    10.08999920   7.69999981  56.53999710
C     9.06999969   7.95000029  57.50999832
C     7.82000017   7.40999985  57.35000229
C     7.50999975   6.58999968  56.23000336
C     8.52999973   6.26999950  55.35999680
C     9.81000042   6.88000011  55.38999939
C    13.88000011   7.69999981  56.30000305
C    14.59000015   7.20000029  55.17000198
C    15.95999908   6.98999977  55.21999741
C     6.07999992   6.15999985  55.98999786
H     5.62602615   6.80549479  55.23810577
H    10.67000008   6.19999981  53.52000427
H    11.56000042   8.46000004  57.90999985
H     9.30000019   8.52999973  58.39000320
H     6.98000002   7.57999992  58.02999878
H     8.36999989   5.53999996  54.56999969
H    16.46000099   6.67000008  54.31000137
H     5.51999998   6.07999992  56.93000031
H     6.17999983   5.14999962  55.58000183
S    13.96999931   4.81999969  51.04999924
C    11.31999969   4.26999998  51.68000031
C    12.64999962   4.13999987  52.01000214
C    13.15999985   3.55999994  53.22000122
C    12.18999958   3.16000009  54.10999680
C    10.81999969   3.17999983  53.76999664
C     9.82999992   2.56000018  54.59000015
C     8.48999977   2.61000013  54.27000046
C     8.00000000   3.40999985  53.20000076
C     8.92000008   3.86999989  52.29000092
C    10.31999969   3.77999997  52.56000137
C    14.59000015   3.75000000  53.40000153
C    15.15999985   4.44999981  52.30999756
C    16.53000069   4.67000008  52.29000092
C     6.51000023   3.63999987  53.02999878
H     6.02396393   3.02530742  52.27235794
H    11.03000069   4.92000008  50.86000061
H    12.51000023   2.72000027  55.05000305
H    10.14000034   1.95999992  55.43000031
H     7.76999998   2.07999992  54.88999939
H     8.55000019   4.33999968  51.38000107
H    17.00000000   5.19000006  51.45999908
H     6.17000008   3.42999983  54.05000305
H     6.38000011   4.71000004  52.81999969
S    17.97999954   3.22000003  55.68999863
C    20.59999847   3.88999987  54.91000366
C    19.23999977   3.95000005  54.68999863
C    18.76000023   4.46999979  53.44999695
C    19.64999962   5.03999996  52.55000305
C    21.04000092   4.96000004  52.78999710
C    21.97000122   5.46999979  51.83000183
C    23.31999969   5.33999968  52.02000046
C    23.82999802   4.84000015  53.25000000
C    22.96999931   4.39000034  54.22999954
C    21.56999969   4.33999968  53.97999573
C    17.31999969   4.28000021  53.37999725
C    16.72999954   3.67000008  54.52000046
C    15.36999893   3.38000011  54.51000214
C    25.30999947   4.61999989  53.47000122
H    25.75326347   4.97747087  54.39942551
H    20.90999985   3.16000009  55.65000153
H    19.34999847   5.50000000  51.60999680
H    21.65999985   5.92999983  50.90000153
H    23.97999954   5.59999990  51.19999695
H    23.32999992   4.17000008  55.22999573
H    14.85000038   2.91000009  55.33000183
H    25.73999786   5.01999950  52.54000092
H    25.55999947   3.54999995  53.39000320
