96

S    16.82999992   8.43000031  58.88000107
C    19.51000023   8.80999947  58.11000061
C    18.23999977   8.42000008  57.78999710
C    17.87999916   7.92999983  56.49000168
C    18.89999962   7.81000042  55.56999969
C    20.26000023   8.06999969  55.87999725
C    21.35999870   7.90000010  54.99000168
C    22.65999985   8.09000015  55.40000153
C    22.96999931   8.55000019  56.70999908
C    21.93000031   8.67000008  57.61000061
C    20.56999969   8.55000019  57.21000290
C    16.44000053   7.82999992  56.33999634
C    15.72999954   8.02999973  57.55000305
C    14.34000015   8.18000031  57.62000275
C    24.36000061   9.00000000  57.08000183
H    24.77214813   8.38888359  57.88298035
H    19.76000023   9.11999989  59.13000107
H    18.61999893   7.44000006  54.58000183
H    21.19999886   7.57999992  53.96999741
H    23.45000076   8.02999973  54.66999817
H    22.13000107   9.01000023  58.61999893
H    13.89000034   8.52000046  58.54999924
H    24.99000168   8.94999981  56.18000031
H    24.15999985  10.03000069  57.41000366
S    13.17000008   7.35000038  53.94000244
C    10.52000046   7.22000027  54.78000259
C    11.82000065   7.53999996  55.07999802
C    12.15999985   7.88999987  56.43000031
C    11.18999958   7.95000029  57.41000366
C     9.84000015   7.62000036  57.14000320
C     8.76000023   7.79999971  58.04999924
C     7.48000050   7.44999981  57.68000031
C     7.22000027   6.90000010  56.39999771
C     8.19000053   6.90999985  55.43000031
C     9.52000046   7.25000000  55.79000092
C    13.60999966   7.86999989  56.46999741
C    14.32000065   7.59999990  55.27000046
C    15.70000076   7.55000019  55.18000031
C     5.82999992   6.37000036  56.13999939
H     5.36815929   6.92420912  55.32289886
H    10.25000000   6.90000010  53.76999664
H    11.51999950   8.15999985  58.43000031
H     8.89000034   8.23000050  59.03999710
H     6.63000011   7.67000008  58.31999969
H     7.94000053   6.61999989  54.40999985
H    16.18999863   7.32999992  54.22999954
H     5.19000006   6.51000023  57.02000046
H     5.80999947   5.29999971  55.91999817
S    13.34000015   5.27999973  51.04000092
C    10.67000008   4.78999996  51.77999878
C    12.02000046   4.65000010  52.04000092
C    12.53000069   4.02999973  53.22999954
C    11.63000011   3.56999993  54.15999985
C    10.24000072   3.71000004  53.92000198
C     9.31999969   3.14000010  54.85000229
C     7.96999979   3.17000008  54.61000061
C     7.46000004   3.72000003  53.40000153
C     8.30999947   4.41000032  52.56999969
C     9.72000027   4.32999992  52.72999573
C    13.97999954   4.15999985  53.36999893
C    14.55000019   4.78999996  52.23999786
C    15.90000057   5.14999962  52.29000092
C     6.02999973   3.42999983  53.00000000
H     5.72408485   3.77148628  52.01110840
H    10.39999962   5.32999992  50.86999893
H    12.03999996   2.87999988  54.88999939
H     9.73999977   2.63000011  55.70999908
H     7.39000034   2.59999990  55.33000183
H     8.00000000   4.76000023  51.59000015
H    16.31999969   5.69999981  51.45000076
H     5.77000046   2.37000012  53.06000137
H     5.36999989   3.98999977  53.67000198
S    17.28999901   3.68000007  55.72999954
C    19.92000008   4.23000002  55.06000137
C    18.59000015   4.48000002  54.82999802
C    18.17000008   4.99000025  53.55999756
C    19.13999939   5.40000010  52.65999603
C    20.51000214   5.19000006  52.94000244
C    21.45999908   5.60999966  51.97999954
C    22.79999924   5.58000040  52.28000259
C    23.29000092   5.00000000  53.47999954
C    22.36999893   4.48999977  54.36000061
C    20.95999908   4.67999983  54.20999908
C    16.73999977   4.85000038  53.36999893
C    16.14999962   4.13999987  54.45000076
C    14.80999947   3.77999997  54.43000031
C    24.75000000   4.63999987  53.61000061
H    25.22780037   5.15345669  54.44437027
H    20.20000076   3.53999996  55.84999847
H    18.95000076   6.00000000  51.77000046
H    21.04000092   6.03999996  51.06999969
H    23.50000000   5.71000004  51.45999908
H    22.73999977   4.01999998  55.27000046
H    14.40999985   3.30999994  55.31999969
H    25.28000069   4.88999987  52.68000031
H    24.84999847   3.54999995  53.70999908
