96

S    16.84000015   8.06999969  58.90999603
C    19.51000023   8.15999985  58.29000092
C    18.23999977   7.88000011  57.84999847
C    17.86000061   7.39000034  56.56000137
C    18.82999992   7.17999983  55.59000015
C    20.15999985   7.51999950  55.94999695
C    21.19999886   7.42000008  54.98000336
C    22.50999832   7.69000006  55.28999710
C    22.80999947   8.00000000  56.63999939
C    21.84999847   8.23999977  57.58999634
C    20.48999977   7.96000004  57.27000427
C    16.40999985   7.36999989  56.38999939
C    15.73999977   7.85000038  57.54000092
C    14.34999943   7.94000053  57.58999634
C    24.23999977   8.43000031  56.90000153
H    24.68889046   7.83860397  57.69802856
H    19.65999985   8.61999989  59.26000214
H    18.63000107   6.93000031  54.54999924
H    20.96999931   6.90000010  54.05000305
H    23.26999855   7.64999962  54.52000046
H    22.00000000   8.63000011  58.59000397
H    13.81000042   8.01999950  58.53000259
H    24.90999985   8.34000015  56.03000259
H    24.28999901   9.48000050  57.21000290
S    13.19000053   6.94999981  53.89999771
C    10.50000000   7.11999989  54.54000092
C    11.79999924   7.20000029  54.97000122
C    12.15000057   7.65999985  56.27999878
C    11.16000080   7.90000010  57.21000290
C     9.81000042   7.82999992  56.77999878
C     8.78000069   7.82999992  57.76000214
C     7.50000000   7.42999983  57.48000336
C     7.17000008   7.09999990  56.12999725
C     8.11999989   7.09000015  55.13000107
C     9.46000004   7.44999981  55.44000244
C    13.60000038   7.67000008  56.44000244
C    14.27000046   7.20000029  55.27999878
C    15.65999985   7.09000015  55.24000168
C     5.80999947   6.57999992  55.75000000
H     5.37774515   7.37364769  55.14059067
H    10.26000023   6.80000019  53.53000259
H    11.50000000   8.01999950  58.23999786
H     9.11999989   8.13000011  58.75000000
H     6.74000025   7.37999964  58.25000000
H     7.86000013   6.54999971  54.22000122
H    16.15999985   6.85999966  54.31000137
H     5.32000017   6.40999985  56.70999908
H     5.97000027   5.63000011  55.22999573
S    17.06999969   8.69999981  52.81999969
C    19.81999969   8.63000011  52.22000122
C    18.53000069   8.25000000  51.91999817
C    18.18000031   7.77999973  50.61000061
C    19.23999977   7.50999975  49.75999832
C    20.58000183   7.88000011  50.01999664
C    21.63999939   7.63999987  49.10999680
C    22.93999863   7.92000008  49.48999786
C    23.23999786   8.64000034  50.66999817
C    22.20000076   8.98999977  51.50000000
C    20.86999893   8.50000000  51.29000092
C    16.76000023   7.86000013  50.33000183
C    16.03000069   8.40999985  51.40999603
C    14.68000031   8.75000000  51.32999802
C    24.63000107   9.10000038  51.06999969
H    25.14184952   8.37488079  51.70270157
H    20.00000000   9.18000031  53.13999939
H    19.02000046   7.20000029  48.75000000
H    21.38999939   7.23999977  48.13000107
H    23.75000000   7.69999981  48.80000305
H    22.43999863   9.52000046  52.41000366
H    14.22999954   9.02999973  52.27000427
H    25.20000076   9.21000004  50.13999939
H    24.59000015  10.10000038  51.50000000
S    13.55999947   7.16000032  47.88999939
C    10.88999939   7.36000013  48.43999863
C    12.15999985   7.68000031  48.86000061
C    12.55000019   8.31999969  50.07999802
C    11.56000042   8.56999969  51.02000427
C    10.22999954   8.25000000  50.65999985
C     9.19000053   8.34999943  51.62000275
C     7.88000011   8.02999973  51.33999634
C     7.48000050   7.64999962  50.02999878
C     8.50000000   7.48000050  49.12000275
C     9.88000011   7.65999985  49.40000153
C    14.00000000   8.38999939  50.15999603
C    14.70000076   7.72000027  49.12000275
C    16.06999969   7.48000050  49.16999817
C     6.10000038   7.11000013  49.77000427
H     5.60269785   7.62151098  48.94589996
H    10.65999985   6.90999985  47.48000336
H    11.67000008   8.80999947  52.06999969
H     9.46000004   8.69000053  52.62000275
H     7.32999992   7.90000010  52.27000427
H     8.36999989   7.03000021  48.13999939
H    16.60000038   6.97000027  48.36999893
H     5.61999989   7.28999996  50.73999786
H     6.19999981   6.03999996  49.52000046
