96

S    16.94000053   8.38000011  58.75999832
C    19.63999939   8.32999992  58.11000061
C    18.37000084   7.90000010  57.81000137
C    17.98999977   7.36000013  56.53999710
C    18.96999931   7.17999983  55.59000015
C    20.30999947   7.55000019  55.84000015
C    21.31999969   7.39000034  54.84000397
C    22.63000107   7.65999985  55.13000107
C    22.96999931   8.30000019  56.35000229
C    22.01000023   8.43000031  57.32999802
C    20.63999939   8.10999966  57.11999893
C    16.54000092   7.34000015  56.36000061
C    15.82999992   7.86999989  57.45999908
C    14.46000004   8.05999947  57.51999664
C    24.38999939   8.69999981  56.66999817
H    24.85558319   8.16995049  57.50088882
H    19.81999969   9.00000000  58.94000244
H    18.75000000   6.63999987  54.66999817
H    21.02000046   6.86999989  53.93000031
H    23.38000107   7.37999964  54.38999939
H    22.29999924   8.89000034  58.27000046
H    14.04999924   8.45000076  58.44999695
H    24.96999931   8.34999943  55.79999924
H    24.61999893   9.76000023  56.84999847
S    13.35000038   7.05999947  53.89999771
C    10.65000057   6.76999998  54.52999878
C    11.90999985   7.11999989  54.93999863
C    12.22000027   7.55000019  56.26999664
C    11.13999939   7.76999998  57.09999847
C     9.84000015   7.35000038  56.72999954
C     8.71999931   7.64999962  57.55000305
C     7.44999981   7.23999977  57.23999786
C     7.18999958   6.52999973  56.04000092
C     8.23000050   6.32999992  55.17000198
C     9.56999969   6.74000025  55.45000076
C    13.66000080   7.72000027  56.42000198
C    14.42000008   7.30999994  55.28999710
C    15.77999973   7.03000021  55.22999573
C     5.77000046   6.15999985  55.65000153
H     5.20530558   6.91769171  55.10675049
H    10.44000053   6.39999962  53.53000259
H    11.18999958   8.23999977  58.08000183
H     8.82000065   8.19999981  58.48999786
H     6.56000042   7.42000008  57.84000015
H     7.96999979   6.06999969  54.15000153
H    16.26000023   6.50000000  54.40999985
H     5.29999971   6.01999998  56.63000107
H     5.82999992   5.19999981  55.12000275
S    13.30000019   4.80999994  50.84999847
C    10.62999916   4.39000034  51.76000214
C    11.98999977   4.30000019  51.93000031
C    12.44999981   3.75000000  53.16999817
C    11.57999992   3.28999996  54.13999939
C    10.17000008   3.40000010  54.00000000
C     9.19000053   2.89000010  54.88999939
C     7.85000038   3.00999999  54.59999847
C     7.42000008   3.45000005  53.31999969
C     8.32999992   3.95000005  52.42000198
C     9.71000004   3.94000006  52.74000168
C    13.90999985   3.79999995  53.22999954
C    14.48999977   4.46000004  52.11999893
C    15.86999989   4.59000015  52.09999847
C     6.00000000   3.14000010  52.90000153
H     5.72917080   3.57475209  51.93784714
H    10.22999954   4.76000023  50.81999969
H    11.98999977   2.73999977  54.97000122
H     9.44000053   2.25999999  55.73999786
H     7.07000017   2.61000013  55.25000000
H     8.03999996   4.13999987  51.38999939
H    16.29999924   4.94999981  51.17000198
H     5.89999962   2.05999994  52.74000168
H     5.32000017   3.37000012  53.72000122
S    17.15999985   3.00999999  55.58000183
C    19.80999947   3.45999980  54.94999695
C    18.50000000   3.53999996  54.54000092
C    18.12000084   4.13000011  53.29000092
C    19.09000015   4.65000010  52.45999908
C    20.45000076   4.61999989  52.85999680
C    21.51000023   5.13999987  52.06999969
C    22.81999969   4.92000008  52.43000031
C    23.15000153   4.32999992  53.68000031
C    22.15999985   3.95000005  54.54999924
C    20.79999924   4.07000017  54.13999939
C    16.67000008   4.07000017  53.11999893
C    16.06999969   3.47000003  54.26000214
C    14.68000031   3.35000014  54.31000137
C    24.59000015   3.96000004  53.93000031
H    25.08027267   4.50001001  54.74001312
H    20.05000114   3.00000000  55.90000153
H    18.84000015   5.05999994  51.47999573
H    21.28999901   5.56999969  51.09000397
H    23.68999863   5.14999962  51.83000183
H    22.40999985   3.45000005  55.48999786
H    14.22000027   2.84999990  55.15999603
H    25.22000122   3.97000027  53.02999878
H    24.56000137   2.94000006  54.31999969
