96

S    16.97000122   8.61999989  58.83999634
C    19.68000031   8.67000008  58.09999847
C    18.38000107   8.30999947  57.81999969
C    18.07999992   7.82999992  56.50000000
C    19.06999969   7.67000008  55.54999924
C    20.40999985   7.97999954  55.86000061
C    21.53000069   7.78999996  55.00999832
C    22.80999947   8.14999962  55.37000275
C    23.05000114   8.78999996  56.62000275
C    21.98999786   9.11999989  57.43000031
C    20.69000053   8.64999962  57.11000061
C    16.63999939   7.90999985  56.31000137
C    15.90999985   8.34000015  57.44999695
C    14.52000046   8.38000011  57.44999695
C    24.44999886   9.17000008  57.05999756
H    24.81257439   8.49461651  57.83491516
H    19.80999947   9.04999924  59.10999680
H    18.70000076   7.57999992  54.52999878
H    21.35000038   7.49000025  53.97999573
H    23.55999947   8.06999969  54.59000015
H    22.20999908   9.46000004  58.43999863
H    14.14999962   8.43000031  58.47000122
H    25.02000046   9.03999996  56.12999725
H    24.47000122  10.19999981  57.42000198
S    13.48000050   7.00000000  53.87000275
C    10.75000000   7.13999987  54.43999863
C    12.03999996   7.42999983  54.80999756
C    12.35999966   7.90999985  56.11999893
C    11.36000061   8.01000023  57.05999756
C    10.01000023   7.73000002  56.72000122
C     8.97999954   7.77999973  57.70000076
C     7.72000027   7.27999973  57.45999908
C     7.44999981   6.80000019  56.14999771
C     8.38000011   6.80000019  55.13999939
C     9.72000027   7.21000004  55.40999985
C    13.80000019   8.07999992  56.29000092
C    14.52999973   7.63999987  55.14999771
C    15.90999985   7.55999994  55.15999603
C     6.09000015   6.25999975  55.77999878
H     5.57092047   6.79330111  54.98360443
H    10.62000084   6.58999968  53.50999832
H    11.57999992   8.19999981  58.11000061
H     9.30999947   8.03999996  58.70999908
H     6.91999960   7.26000023  58.20000076
H     8.19000053   6.47000027  54.13000107
H    16.44000053   7.11999989  54.31999969
H     5.58000040   6.32999992  56.75000000
H     6.21999979   5.18000031  55.59999847
S    14.04000092   5.07000017  51.12999725
C    11.39999962   4.42999983  51.59000015
C    12.69999981   4.36999989  52.04999924
C    13.09000015   3.81000018  53.30999756
C    12.11999989   3.31999993  54.18000031
C    10.77000046   3.40999985  53.76999664
C     9.76000023   2.84999990  54.59000015
C     8.45000076   2.98000002  54.20000076
C     8.06999969   3.58999991  52.97999954
C     9.03999996   4.05000019  52.11000061
C    10.40999985   3.91999984  52.47000122
C    14.50000000   4.05999994  53.53000259
C    15.15999985   4.71000004  52.45999908
C    16.50000000   5.09000015  52.36999893
C     6.61000013   3.74000025  52.63000107
H     6.28209209   3.57604623  51.60350418
H    11.10999966   5.00000000  50.72000122
H    12.30999947   2.84999990  55.13999939
H    10.11000061   2.43000007  55.52999878
H     7.69000006   2.45000005  54.77000427
H     8.75000000   4.48000002  51.16000366
H    16.97999954   5.52999973  51.50000000
H     6.03999996   3.05000019  53.27999878
H     6.28999996   4.76000023  52.88999939
S    17.84000015   3.58000016  55.79999924
C    20.50000000   4.05000019  55.13000107
C    19.17000008   4.19000006  54.79999924
C    18.71999931   4.71000004  53.54000092
C    19.64999962   5.10999966  52.58999634
C    21.02000046   4.96000004  52.91999817
C    22.00000000   5.38999987  51.97999954
C    23.35000038   5.26999998  52.18000031
C    23.75000000   4.75000000  53.43999863
C    22.86999893   4.30000019  54.40000153
C    21.47000122   4.38000011  54.15000153
C    17.27000046   4.74000025  53.48999786
C    16.64999962   4.07999992  54.58000183
C    15.31000042   3.72000003  54.61999893
C    25.22000122   4.55000019  53.74000168
H    25.54006767   4.63535213  54.77845001
H    20.81000137   3.55999994  56.04999924
H    19.40999985   5.56999969  51.63999939
H    21.77000046   5.84000015  51.00999832
H    24.01000023   5.55000019  51.37000275
H    23.15000153   3.84999990  55.34999847
H    14.92000008   3.10999990  55.43000031
H    25.72000122   5.29999971  53.11999893
H    25.53999901   3.54999995  53.43000031
