96

S    17.21999931   8.05000019  58.93000031
C    19.82999992   8.46000004  58.09000015
C    18.60999870   7.88999987  57.83000183
C    18.30000114   7.36000013  56.52999878
C    19.29000092   7.32999992  55.56000137
C    20.61000061   7.71000004  55.87999725
C    21.71999931   7.44999981  55.01999664
C    23.02999878   7.68000031  55.37000275
C    23.26000023   8.26000023  56.65000153
C    22.23999977   8.52999973  57.52999878
C    20.88999939   8.30000019  57.15999985
C    16.86000061   7.25000000  56.38999939
C    16.15999985   7.64999962  57.55000305
C    14.78999996   7.79999971  57.67000198
C    24.69000053   8.56999969  57.04999924
H    25.06001472   8.14305973  57.98215485
H    20.10999870   8.92000008  59.03999710
H    19.06999969   6.78999996  54.64000320
H    21.47000122   7.09999990  54.02000046
H    23.81999969   7.42000008  54.68000031
H    22.49000168   9.00000000  58.47999954
H    14.35999966   8.18000031  58.59000397
H    25.40999985   8.23999977  56.30000305
H    24.90999985   9.63999939  57.06999969
S    13.55000019   6.81999969  54.02000046
C    10.82999992   6.90000010  54.71000290
C    12.13999939   7.16000032  55.04000092
C    12.56999969   7.71000004  56.29000092
C    11.63000011   7.94000053  57.27000427
C    10.24000072   7.86000013  56.98999786
C     9.30999947   7.79999971  58.06999969
C     7.99000025   7.46000004  57.88000107
C     7.59000015   7.02000046  56.59000015
C     8.52999973   6.91999960  55.59000015
C     9.89999962   7.30000019  55.70999908
C    14.01000023   7.64999962  56.51000214
C    14.67000008   7.26999998  55.31999969
C    16.02000046   6.93000031  55.31000137
C     6.21000004   6.42000008  56.45999908
H     5.66800594   6.92633677  55.66127014
H    10.53999996   6.43000031  53.77999878
H    12.00000000   7.94000053  58.29000092
H     9.68999958   7.88999987  59.08000183
H     7.30000019   7.53999996  58.72000122
H     8.30000019   6.34000015  54.69999695
H    16.43000031   6.48999977  54.40999985
H     5.69999981   6.61000013  57.41000366
H     6.28000021   5.35000038  56.25999832
S    13.52000046   4.65000010  51.00000000
C    10.78999996   4.44000006  51.70999908
C    12.11999989   4.23000002  52.00000000
C    12.53999901   3.65000010  53.23999786
C    11.56000042   3.19000006  54.09999847
C    10.18000031   3.24000001  53.79000092
C     9.19000053   2.68000007  54.62999725
C     7.85000038   2.82000017  54.31999969
C     7.48000050   3.63000011  53.20999908
C     8.40999985   4.11000013  52.31999969
C     9.80000019   3.88999987  52.56000137
C    13.99000072   3.65999985  53.41999817
C    14.63999939   4.26000023  52.31999969
C    16.00000000   4.53999996  52.34000397
C     6.05999994   4.13999987  53.06000137
H     5.58807707   3.56082201  52.26631165
H    10.43000031   4.92999983  50.80999756
H    11.82999992   2.50000000  54.89999771
H     9.53999996   2.31999993  55.59000015
H     7.11000013   2.48000002  55.02999878
H     8.09000015   4.69000006  51.45999908
H    16.60000038   4.92999983  51.52000046
H     5.42999983   4.09000015  53.95000076
H     5.95000029   5.18000031  52.75000000
S    17.31999969   2.82999992  55.59000015
C    19.96999931   3.67000008  55.20000076
C    18.64999962   3.72000003  54.81999969
C    18.26000023   4.30000019  53.56999969
C    19.19000053   4.81999969  52.69000244
C    20.55000114   4.69999981  53.08000183
C    21.55999947   5.09000015  52.15000153
C    22.88999939   4.94000006  52.43999863
C    23.31999969   4.42000008  53.68999863
C    22.36999893   4.19999981  54.65999985
C    20.96999931   4.26000023  54.38000107
C    16.80999947   4.30999994  53.46000290
C    16.14999962   3.54999995  54.45999908
C    14.78999996   3.28000021  54.50000000
C    24.79999924   4.13999987  53.81000137
H    25.22634888   4.70136070  54.64138412
H    20.26000023   3.01999998  56.02000427
H    18.85000038   5.36999989  51.81999969
H    21.25000000   5.56999969  51.22000122
H    23.65999985   5.15999985  51.70999908
H    22.65999985   3.77999997  55.61999893
H    14.28999996   2.76999998  55.31999969
H    25.26000023   4.44000006  52.85999680
H    25.06000137   3.08999991  53.97999573
