96

S    16.98999977   8.42000008  58.82999802
C    19.63999939   8.52999973  58.09000015
C    18.38999939   8.03999996  57.80000305
C    18.04000092   7.42999983  56.55000305
C    19.07999992   7.30999994  55.63999939
C    20.39999962   7.73999977  55.89000320
C    21.51000023   7.59000015  55.00000000
C    22.76000023   8.00000000  55.38999939
C    23.09000015   8.42000008  56.70000076
C    22.04000092   8.56999969  57.57999802
C    20.69999886   8.31999969  57.16999817
C    16.60000038   7.42999983  56.38999939
C    15.90000057   7.90999985  57.52999878
C    14.55000019   8.25000000  57.55000305
C    24.50000000   8.76999950  57.11000061
H    24.97705650   8.13629913  57.85762405
H    19.72999954   9.22999954  58.92000198
H    18.81000137   7.03000021  54.62999725
H    21.31999969   7.23000002  53.99000168
H    23.50000000   7.96999979  54.59000015
H    22.19000053   8.89999962  58.61000061
H    14.07999992   8.76999950  58.36999893
H    25.10000038   8.76999950  56.18999863
H    24.47000122   9.80000019  57.49000168
S    13.30999947   6.81999969  54.09999847
C    10.59000015   6.67999983  54.92000198
C    11.90000057   7.03999996  55.14999771
C    12.30999947   7.62000036  56.38999939
C    11.31000042   7.88999987  57.29999924
C     9.94999981   7.57999992  57.04999924
C     8.89000034   7.73999977  57.98999786
C     7.57999992   7.36999989  57.81000137
C     7.25000000   6.63000011  56.65000153
C     8.23000050   6.37000036  55.72000122
C     9.56999969   6.80999994  55.90000153
C    13.76000023   7.72000027  56.52000046
C    14.46000004   7.20000029  55.38999939
C    15.81999969   6.97000027  55.31999969
C     5.84000015   6.28000021  56.20999908
H     5.41295004   6.82804728  55.37013245
H    10.32999992   6.30999994  53.93000031
H    11.56000042   8.34000015  58.26000214
H     9.15000057   8.10999966  58.97999573
H     6.85999966   7.65999985  58.56999969
H     7.92999983   5.82000017  54.82999802
H    16.22999954   6.54999971  54.40999985
H     5.23999977   6.40999985  57.11999893
H     5.84999990   5.21000004  56.00000000
S    13.60000038   5.10999966  51.03000259
C    10.98000050   4.53999996  51.68000031
C    12.30000019   4.28999996  51.93000031
C    12.79000092   3.58999991  53.08000183
C    11.89000034   2.96999979  53.93000031
C    10.51000023   3.22000003  53.75999832
C     9.52999973   2.63999987  54.61999893
C     8.19999981   2.84000015  54.29000092
C     7.76000023   3.68999982  53.26000214
C     8.69000053   4.13999987  52.35000229
C    10.06999969   3.94000006  52.60000229
C    14.22999954   3.75999975  53.25000000
C    14.78999996   4.55999994  52.22000122
C    16.13999939   4.88999987  52.15999985
C     6.30000019   4.07000017  53.09000015
H     5.84319305   3.64174342  52.19779968
H    10.59999943   5.09000015  50.81999969
H    12.23999977   2.40999985  54.79000092
H     9.88000011   2.14000010  55.52000046
H     7.42999983   2.38999987  54.91000366
H     8.36000061   4.74000025  51.50000000
H    16.52000046   5.32000017  51.24000168
H     5.82999992   3.86999989  54.06000137
H     6.25999975   5.17000008  53.08000183
S    17.53999901   3.28999996  55.52999878
C    20.23999977   3.89999986  54.87999725
C    18.89000130   3.95000005  54.59999847
C    18.38999939   4.48999977  53.36999893
C    19.25000000   5.09000015  52.47000122
C    20.63999939   5.03000021  52.69000244
C    21.56999969   5.66999960  51.81999969
C    22.88000107   5.78000021  52.18999863
C    23.35000038   5.10999966  53.34999847
C    22.52000046   4.32999992  54.13999939
C    21.11999893   4.41000032  53.89999771
C    16.95000076   4.34999990  53.16999817
C    16.36000061   3.68999982  54.27000046
C    15.01999950   3.30000019  54.31000137
C    24.80999947   5.38999987  53.61000061
H    25.08878708   5.08262014  54.61791611
H    20.69999886   3.38999987  55.72999954
H    18.93000031   5.68000031  51.60999680
H    21.05999947   6.14000034  50.97999954
H    23.59000015   6.34999990  51.59000015
H    23.01000214   3.77999997  54.93000031
H    14.57999992   2.64999986  55.06000137
H    25.12000084   6.42000008  53.39000320
H    25.39999962   4.76000023  52.93000031
