96

S    17.02000046   8.61999989  59.00000000
C    19.77000046   8.56000042  58.36000061
C    18.45999908   8.25000000  58.04000092
C    18.13999939   7.60999966  56.79999924
C    19.18000031   7.40000010  55.91999817
C    20.53999901   7.63000011  56.23000336
C    21.64999962   7.35000038  55.38000107
C    22.89999962   7.49000025  55.93999863
C    23.22999954   8.27999973  57.06999969
C    22.18000031   8.46000004  57.94000244
C    20.85000038   8.19999981  57.51999664
C    16.69999886   7.49000025  56.65999985
C    15.93999958   7.97999954  57.75000000
C    14.55999947   8.15999985  57.77999878
C    24.67000008   8.67999935  57.32999802
H    25.15337181   8.07578564  58.09770584
H    20.17999840   8.89999962  59.29999924
H    19.02000046   7.03999996  54.89999771
H    21.42999840   6.74000025  54.51000214
H    23.75000000   7.07000017  55.40999985
H    22.20999908   8.86999989  58.95000076
H    14.06999969   8.46000004  58.70999908
H    25.10999870   8.65999985  56.32999802
H    24.71999931   9.73999977  57.62000275
S    13.50999928   7.13000011  54.09999847
C    10.77000046   6.96000004  54.78000259
C    12.05999947   7.26000023  55.12000275
C    12.39999962   7.68000031  56.45000076
C    11.36999989   7.96999979  57.32999802
C    10.01000023   7.77999973  56.97999954
C     8.92000008   7.92000008  57.88999939
C     7.60999966   7.69000006  57.56000137
C     7.39000034   7.13000011  56.26999664
C     8.36999989   6.91999960  55.33000183
C     9.71000004   7.25000000  55.68000031
C    13.83999920   7.76999998  56.63999939
C    14.55999947   7.28999996  55.52000046
C    15.93999958   7.11000013  55.54000092
C     5.97000027   6.67000008  56.00999832
H     5.64202785   7.14056921  55.08312225
H    10.57000065   6.52999973  53.80000305
H    11.56999969   8.34999943  58.33000183
H     9.15000057   7.99000025  58.94000244
H     6.80000019   7.64999962  58.29000092
H     8.19999981   6.51999998  54.34000015
H    16.47999954   6.77999973  54.65999985
H     5.28999996   6.94000006  56.83000183
H     5.78999996   5.59000015  55.98999786
S    17.56000137   8.65999985  52.90999985
C    20.28000069   8.88000011  52.30999756
C    18.98999977   8.73000050  51.86000061
C    18.57999992   8.38000011  50.52999878
C    19.56999969   8.25000000  49.58000183
C    20.90999985   8.53999996  49.93999863
C    21.96000099   8.59000015  48.97999573
C    23.22999954   8.97999954  49.34000015
C    23.57000160   9.19999981  50.70000076
C    22.60000038   9.15999985  51.68000031
C    21.27000046   8.80999947  51.30000305
C    17.15999985   8.14999962  50.34000015
C    16.45000076   8.39999962  51.55000305
C    15.06000042   8.43000031  51.59999847
C    25.00000000   9.57999992  51.00000000
H    25.48408318   8.88235092  51.68341064
H    20.40999985   9.13999939  53.36000061
H    19.31999969   8.25000000  48.52000427
H    21.71999931   8.22000027  47.97999954
H    24.03000069   8.94999981  48.61000061
H    22.92000008   9.31999969  52.70000076
H    14.61999989   8.78000069  52.52999878
H    25.59000015   9.68999958  50.07999802
H    24.84999847  10.59000015  51.40999603
S    13.89999962   7.44000006  47.97000122
C    11.23000050   7.26000023  48.75999832
C    12.51999950   7.62000036  49.08000183
C    12.79999924   8.13000011  50.38000107
C    11.79999924   8.34999943  51.31000137
C    10.47000027   8.01000023  50.97000122
C     9.38000011   8.11999989  51.88999939
C     8.09000015   7.88000011  51.46999741
C     7.73999977   7.28999996  50.22999573
C     8.82999992   7.07000017  49.40999985
C    10.18000031   7.44000006  49.68999863
C    14.26000023   8.14999962  50.48999786
C    14.98000050   7.90999985  49.29999924
C    16.36000061   7.86000013  49.22999954
C     6.34999990   6.77999973  49.93000031
H     5.87214994   7.43615246  49.20252228
H    11.10999966   6.85999966  47.75000000
H    11.95000076   8.69000053  52.32999802
H     9.52999973   8.47999954  52.90000153
H     7.40999985   7.92000008  52.30999756
H     8.69000053   6.58999968  48.44999695
H    16.82999992   7.62000036  48.27000046
H     5.69999981   6.76000023  50.81999969
H     6.43000031   5.78000021  49.48999786
