96

S    17.11000061   8.61999989  58.80000305
C    19.81999969   8.85999966  58.06000137
C    18.52000046   8.55000019  57.72999573
C    18.15999985   8.17000008  56.38999939
C    19.19999886   7.90000010  55.52999878
C    20.56999969   8.14000034  55.80999756
C    21.61999893   7.86999989  54.88999939
C    22.92000008   8.26000023  55.13000107
C    23.13999939   9.02000046  56.31000137
C    22.19000053   9.13000011  57.30999756
C    20.85000038   8.69999981  57.09999847
C    16.72999954   7.97999954  56.25000000
C    16.02000046   8.25000000  57.44999695
C    14.63000107   8.27000046  57.55000305
C    24.56000137   9.35000038  56.72000122
H    24.93721962   8.65961647  57.47443771
H    19.90999985   9.19000053  59.09000015
H    19.05999947   7.55999994  54.50000000
H    21.42000008   7.28999996  54.00000000
H    23.71999931   7.96000004  54.45999908
H    22.43000031   9.61999989  58.25000000
H    14.11000061   8.69999981  58.40000153
H    25.23999977   9.31999969  55.86000061
H    24.61000061  10.38000011  57.09999847
S    13.50999928   7.23000002  53.85000229
C    10.80000019   7.07999992  54.54999924
C    12.07999992   7.46000004  54.86999893
C    12.41000080   7.96999979  56.17000198
C    11.43000031   8.06999969  57.12999725
C    10.07999992   7.75000000  56.83000183
C     9.04999924   7.77999973  57.81000137
C     7.73999977   7.48000050  57.49000168
C     7.40000010   7.09999990  56.17000198
C     8.40999985   6.98000002  55.25000000
C     9.77000046   7.30000019  55.50000000
C    13.83999920   8.01999950  56.42000198
C    14.52999973   7.69999981  55.22999573
C    15.90999985   7.78999996  55.13000107
C     5.95000029   6.94999981  55.76000214
H     5.50270271   7.54639673  54.96480560
H    10.48999977   6.67999983  53.59000397
H    11.73999977   8.17000008  58.16999817
H     9.25000000   8.01999950  58.85000229
H     6.94000006   7.59999990  58.20999908
H     8.14000034   6.57999992  54.27000046
H    16.40999985   7.46000004  54.22000122
H     5.42999983   7.22000027  56.69000244
H     5.75000000   5.88000011  55.59999847
S    14.09000015   5.21000004  51.13999939
C    11.43000031   4.59000015  51.63000107
C    12.74000072   4.46000004  52.02000046
C    13.15000057   3.84000015  53.23999786
C    12.23000050   3.14000010  54.01000214
C    10.85999966   3.38000011  53.75000000
C     9.77999973   2.94000006  54.56999969
C     8.48999977   3.32999992  54.34000015
C     8.10000038   4.00000000  53.15000153
C     9.11000061   4.32999992  52.29000092
C    10.47999954   4.00000000  52.50999832
C    14.55000019   4.11999989  53.52000427
C    15.17000008   4.90999985  52.51999664
C    16.51000023   5.26999998  52.55000305
C     6.71999979   4.48999977  52.76000214
H     6.29138422   3.98280478  51.89562988
H    11.06999969   5.05999994  50.72000122
H    12.48000050   2.59999990  54.91000366
H    10.01999950   2.36000013  55.45999908
H     7.75000000   3.10999990  55.11000061
H     9.00000000   5.03000021  51.46999741
H    16.88999939   5.88999987  51.73999786
H     6.01000023   4.35999966  53.59000397
H     6.80999994   5.55000019  52.51999664
S    17.90999985   3.32999992  55.75000000
C    20.59999847   3.94000006  54.98000336
C    19.22999954   4.01999998  54.79000092
C    18.78999901   4.78999996  53.67000198
C    19.70999908   5.40999985  52.84999847
C    21.09000015   5.09999990  52.88000107
C    22.04999924   5.71000004  52.02000046
C    23.38000107   5.42000008  52.19999695
C    23.81999969   4.75000000  53.36999893
C    22.93999863   4.19999981  54.27000046
C    21.54999924   4.32999992  54.01000214
C    17.34000015   4.72000027  53.53000259
C    16.73999977   3.98999977  54.59000015
C    15.36999893   3.75999975  54.59999847
C    25.28000069   4.86999989  53.72000122
H    25.49347305   5.19732189  54.73754120
H    20.89999962   3.54999995  55.94999695
H    19.40999985   5.98000002  51.97000122
H    21.70000076   6.50000000  51.36000061
H    24.18999863   5.79999971  51.59000015
H    23.18000031   3.76999998  55.24000168
H    14.84000015   3.15000010  55.31999969
H    25.76999855   5.65999985  53.15000153
H    25.76999855   3.91000009  53.50999832
