96

S    16.65999985   8.57999992  58.70999908
C    19.38999939   8.69999981  58.23999786
C    18.15000153   8.30000019  57.78999710
C    17.80999947   7.90000010  56.45999908
C    18.88000107   7.64999962  55.61000061
C    20.20000076   7.90000010  56.05999756
C    21.32999802   7.48000050  55.31999969
C    22.60000038   7.86000013  55.70000076
C    22.88999939   8.52000046  56.93000031
C    21.80999947   8.78999996  57.72999573
C    20.46999931   8.48999977  57.35000229
C    16.38000107   7.73999977  56.22000122
C    15.62000084   8.25000000  57.30999756
C    14.22999954   8.31999969  57.29999924
C    24.31999969   8.82999992  57.30999756
H    24.71161079   8.09661674  58.01490021
H    19.63999939   9.13999939  59.20000076
H    18.75000000   7.23999977  54.61000061
H    21.15999985   7.13000011  54.31000137
H    23.35000038   7.57000017  54.97000122
H    22.00000000   9.06000042  58.76999664
H    13.68000031   8.52999973  58.20000076
H    24.84999847   8.88000011  56.35000229
H    24.33000183   9.88000011  57.63000107
S    13.22000027   6.96000004  53.70999908
C    10.55999947   6.70000029  54.40999985
C    11.78999996   7.22000027  54.72000122
C    12.10000038   7.79999971  56.00000000
C    11.03999996   8.03999996  56.86000061
C     9.72999954   7.63000011  56.53999710
C     8.67000008   7.94000053  57.43999863
C     7.36999989   7.73000002  57.04000092
C     7.09999990   7.11999989  55.79000092
C     8.10999966   6.78999996  54.92000198
C     9.47000027   6.98999977  55.27999878
C    13.53999996   7.94000053  56.13999939
C    14.27999973   7.40999985  55.06000137
C    15.67000008   7.30999994  55.10000229
C     5.69999981   6.63000011  55.48999786
H     5.14624977   7.30443954  54.83685684
H    10.38000011   6.23000050  53.43999863
H    11.17000008   8.56000042  57.80000305
H     8.85999966   8.23999977  58.47000122
H     6.53999996   7.83999968  57.72999573
H     7.79999971   6.34000015  53.96999741
H    16.27000046   7.11000013  54.22000122
H     5.10999966   6.65999985  56.40999603
H     5.68000031   5.65999985  54.98000336
S    17.20999908   8.97000027  52.77999878
C    19.90999985   8.93999958  52.11999893
C    18.61999893   8.64000034  51.75000000
C    18.25000000   8.14999962  50.45999908
C    19.27000046   7.90999985  49.54999924
C    20.62000084   8.14000034  49.91000366
C    21.64999962   8.09000015  48.93000031
C    22.95000076   8.43000031  49.23999786
C    23.34000015   8.80999947  50.54999924
C    22.34000015   8.86999989  51.49000168
C    20.95000076   8.71999931  51.18000031
C    16.80999947   8.10999966  50.27999878
C    16.11999893   8.52000046  51.45000076
C    14.75000000   8.75000000  51.53999710
C    24.77999878   9.11999989  50.86000061
H    25.20914078   8.54781246  51.68252182
H    20.20000076   9.31999969  53.09000015
H    18.97999954   7.65999985  48.54000092
H    21.45000076   7.78999996  47.90999985
H    23.71999931   8.32999992  48.47999954
H    22.59000015   9.22000027  52.49000168
H    14.35999966   9.26000023  52.41000366
H    25.36999893   9.02000046  49.93999863
H    24.79000092  10.15999985  51.20999908
S    13.53000069   7.60999966  47.91999817
C    10.92000008   7.35000038  48.72000122
C    12.17000008   7.82999992  49.03999710
C    12.55000019   8.36000061  50.31000137
C    11.54000092   8.65999985  51.20999908
C    10.22999954   8.23000050  50.89000320
C     9.21000004   8.45000076  51.86000061
C     7.88999987   8.22000027  51.56000137
C     7.57000017   7.44000006  50.41999817
C     8.56000042   7.05999947  49.54000092
C     9.89999962   7.50000000  49.69999695
C    14.00000000   8.42000008  50.40999985
C    14.67000008   8.01000023  49.22000122
C    16.03999901   7.76000023  49.15999985
C     6.14000034   7.11999989  50.06999969
H     5.73364305   7.77587366  49.30006409
H    10.70000076   6.96000004  47.72999573
H    11.76000023   9.02999973  52.21000290
H     9.50000000   8.78999996  52.84999847
H     7.14999962   8.36000061  52.34000397
H     8.21000004   6.51999998  48.66000366
H    16.43000031   7.30999994  48.26000214
H     5.55999994   7.44000006  50.94999695
H     6.00000000   6.06999969  49.77000427
