96

S    17.18000031   8.56000042  58.81000137
C    19.88999939   8.76999950  57.95999908
C    18.55999947   8.52000046  57.70999908
C    18.12000084   8.05000019  56.43000031
C    19.06999969   7.90999985  55.44000244
C    20.45000076   8.07999992  55.70000076
C    21.47999954   7.88999987  54.73999786
C    22.82999992   8.01000023  55.00000000
C    23.22999954   8.13000011  56.36000061
C    22.29000092   8.51000023  57.29000092
C    20.89999962   8.53999996  56.98999786
C    16.69000053   7.75000000  56.40999603
C    15.98000050   8.14000034  57.57999802
C    14.60000038   8.27999973  57.62000275
C    24.68000031   8.36999989  56.72000122
H    24.95762444   7.92153072  57.67388916
H    20.39999962   8.90999985  58.90999603
H    18.78000069   7.65999985  54.41999817
H    21.21000099   7.55000019  53.75000000
H    23.48999977   8.01999950  54.13999939
H    22.43999863   8.92000008  58.29000092
H    13.97999954   8.53999996  58.47999954
H    25.27000046   8.05999947  55.84999847
H    24.77000046   9.46000004  56.81000137
S    13.50000000   7.14999962  53.96999741
C    10.76000023   7.46999979  54.61000061
C    12.09000015   7.57999992  54.95999908
C    12.46000099   8.01000023  56.26999664
C    11.46999931   8.19000053  57.22999954
C    10.11000061   7.95000029  56.91999817
C     9.07999992   7.82999992  57.90000153
C     7.83999968   7.31999969  57.62000275
C     7.50999975   6.90999985  56.30000305
C     8.46000004   7.00999975  55.31000137
C     9.73999977   7.55000019  55.59000015
C    13.90999985   8.03999996  56.43000031
C    14.61999989   7.55000019  55.30000305
C    15.98999977   7.37999964  55.26000214
C     6.10000038   6.50000000  55.94999695
H     5.54312229   7.21394634  55.34314728
H    10.44000053   7.03999996  53.67000198
H    11.72000027   8.46000004  58.25000000
H     9.43000031   7.99000025  58.92000198
H     7.16000032   7.31999969  58.47000122
H     8.27999973   6.65999985  54.29000092
H    16.44000053   7.21000004  54.27999878
H     5.40999985   6.42000008  56.79999924
H     6.06999969   5.50000000  55.51000214
S    13.63999939   4.77999973  50.93000031
C    10.95999908   4.42000008  51.73999786
C    12.30999947   4.26000023  51.97999954
C    12.79000092   3.70000005  53.20000076
C    11.87999916   3.35000014  54.18000031
C    10.48999977   3.55999994  54.03999710
C     9.48999977   3.15000010  54.95999908
C     8.14000034   3.25000000  54.72000122
C     7.75000000   3.84000015  53.48999786
C     8.65999985   4.30999994  52.56000137
C    10.05000019   4.09000015  52.77000046
C    14.23999977   3.76999998  53.29000092
C    14.82999992   4.48999977  52.22000122
C    16.13999939   4.92999983  52.15000153
C     6.25999975   3.89999986  53.26000214
H     5.91083336   3.42969346  52.34076691
H    10.59999943   4.88000011  50.83000183
H    12.25999928   2.79999995  55.04000092
H     9.78999996   2.59999990  55.84999847
H     7.57000017   2.75999999  55.50000000
H     8.27000046   4.77999973  51.65999985
H    16.55999947   5.35000038  51.24000168
H     5.73999977   3.35000014  54.06000137
H     5.92000008   4.94999981  53.26000214
S    17.52000046   3.72000003  55.68999863
C    20.17999840   4.00000000  54.88999939
C    18.85000038   4.23999977  54.64000320
C    18.35000038   4.80999994  53.41999817
C    19.29000092   5.29999971  52.52999878
C    20.66999817   5.19000006  52.81000137
C    21.67000008   5.53999996  51.86000061
C    23.02000046   5.46999979  52.09000015
C    23.45999908   4.94999981  53.33000183
C    22.55000114   4.39000034  54.19000244
C    21.14999962   4.57999992  54.02999878
C    16.90000153   4.73000002  53.30999756
C    16.31000137   4.09999990  54.43999863
C    15.03999901   3.54999995  54.43000031
C    24.84999847   4.39000034  53.53000259
H    25.29283524   4.57570601  54.50852585
H    20.48999977   3.26999998  55.63000107
H    18.97999954   5.88000011  51.66999817
H    21.30000114   5.88999987  50.89000320
H    23.64999962   5.44000053  51.19999695
H    22.72000122   3.70000005  55.01999664
H    14.61999989   3.17999983  55.35999680
H    25.45000076   4.88999987  52.76000214
H    24.90999985   3.35000014  53.18000031
