96

S    16.87999916   9.02999973  58.67000198
C    19.57999992   9.04999924  57.98999786
C    18.30000114   8.65999985  57.68000031
C    17.97000122   8.14999962  56.38000107
C    19.01000023   7.95000029  55.47999954
C    20.36999893   8.19999981  55.79000092
C    21.47999954   8.00000000  54.93000031
C    22.77000046   8.36999989  55.24000168
C    22.98999977   8.97999954  56.50000000
C    21.97000122   9.17000008  57.39999771
C    20.62999916   8.78000069  57.08000183
C    16.53000069   8.14000034  56.17000198
C    15.82999992   8.43000031  57.36999893
C    14.45000076   8.52999973  57.47000122
C    24.43000031   9.30000019  56.79999924
H    24.88953209   8.69907284  57.58473969
H    19.76000023   9.63999939  58.88999939
H    18.84000015   7.53000021  54.50000000
H    21.21999931   7.63000011  53.94000244
H    23.57999992   8.18000031  54.54000092
H    22.17000008   9.48999977  58.41999817
H    13.86999989   8.67999935  58.37999725
H    25.07999802   9.22999954  55.91999817
H    24.37000084  10.34000015  57.14000320
S    13.22000027   7.32999992  53.86000061
C    10.51000023   7.46000004  54.58000183
C    11.82000065   7.75000000  54.86999893
C    12.25000000   8.27999973  56.12999725
C    11.28999901   8.42000008  57.11999893
C     9.96000004   8.03999996  56.86000061
C     8.97000027   8.09000015  57.88999939
C     7.65999985   7.82999992  57.60000229
C     7.23000002   7.46000004  56.30000305
C     8.14999962   7.27999973  55.28999710
C     9.48999977   7.64999962  55.54999924
C    13.68999958   8.23999977  56.32999802
C    14.34999943   7.88000011  55.12000275
C    15.72999954   7.81000042  55.06999969
C     5.78000021   7.04999971  56.12999725
H     5.44605350   7.31999969  55.12815857
H    10.13000011   7.11000013  53.61999893
H    11.67000008   8.65999985  58.11000061
H     9.23999977   8.30000019  58.92000198
H     6.93000031   7.81000042  58.40999985
H     7.99000025   6.71999979  54.36999893
H    16.28999901   7.53000021  54.18000031
H     5.18000031   7.44000006  56.95999908
H     5.71000004   5.96000004  56.25999832
S    13.61999989   5.40999985  50.90999985
C    10.90000057   5.01999950  51.60999680
C    12.23999977   4.84000015  51.88000107
C    12.68000031   4.13000011  53.02999878
C    11.75000000   3.65999985  53.95000076
C    10.36999893   3.88000011  53.70999908
C     9.38000011   3.30999994  54.54000092
C     8.06999969   3.23000002  54.13999939
C     7.60999966   4.09999990  53.11000061
C     8.52000046   4.71000004  52.29000092
C     9.92000008   4.56999969  52.52999878
C    14.11999893   4.21999979  53.20999908
C    14.77000046   4.96000004  52.18999863
C    16.10999870   5.29999971  52.21000290
C     6.12999964   4.30000019  52.88000107
H     5.62462568   3.78750801  52.06143570
H    10.62999916   5.59000015  50.72000122
H    12.18000031   3.12000012  54.78000259
H     9.63000011   2.66999984  55.38999939
H     7.32999992   2.77999997  54.79999924
H     8.32999992   5.38000011  51.45000076
H    16.57999992   5.86999989  51.39999771
H     5.65000010   3.98000002  53.81000137
H     5.98000002   5.38000011  52.76000214
S    17.36999893   3.86000013  55.65000153
C    20.05000114   4.41000032  54.89999771
C    18.70000076   4.55000019  54.68999863
C    18.25000000   5.19000006  53.47999954
C    19.17000008   5.69999981  52.57999802
C    20.55000114   5.51000023  52.80000305
C    21.57999992   5.98999977  51.93000031
C    22.93000031   5.86999989  52.15999985
C    23.38999939   5.10999966  53.27000046
C    22.43000031   4.61999989  54.13000107
C    21.04000092   4.86000013  53.99000168
C    16.81999969   4.96000004  53.36000061
C    16.15999985   4.30000019  54.43000031
C    14.84000015   3.86000013  54.36000061
C    24.86000061   4.90000010  53.54999924
H    25.07339668   4.96401930  54.61698914
H    20.34000015   3.76999998  55.73999786
H    18.76000023   6.17000008  51.69000244
H    21.25000000   6.51000023  51.03000259
H    23.59000015   6.32999992  51.44000244
H    22.79999924   4.05000019  54.98000336
H    14.35999966   3.30999994  55.15999603
H    25.42000008   5.60999966  52.93000031
H    25.28000069   3.97000027  53.15999985
