96

S    16.95000076   8.27999973  58.97999573
C    19.64999962   8.43999958  58.27999878
C    18.37000084   8.03999996  57.95000076
C    17.95999908   7.49000025  56.69000244
C    18.97999954   7.42000008  55.76000214
C    20.34000015   7.72000027  56.04000092
C    21.42000008   7.69000006  55.11000061
C    22.72999954   8.01000023  55.34999847
C    23.02999878   8.42000008  56.66999817
C    22.03000069   8.59000015  57.60000229
C    20.69000053   8.18000031  57.36000061
C    16.52000046   7.42999983  56.49000168
C    15.84000015   7.90000010  57.64999771
C    14.48999977   8.21000004  57.62000275
C    24.46000099   8.71000004  57.04999924
H    24.76662254   8.23937225  57.98412704
H    19.93999863   8.94999981  59.20000076
H    18.76000023   7.07000017  54.75000000
H    21.09000015   7.30000019  54.15000153
H    23.59999847   7.73999977  54.75999832
H    22.27999878   9.02000046  58.55999756
H    13.90999985   8.67000008  58.41999817
H    25.20000076   8.43999958  56.26999664
H    24.54000092   9.80000019  57.09000015
S    13.31999969   7.23000002  53.95999908
C    10.62999916   7.30999994  54.71000290
C    11.92999935   7.65999985  54.99000168
C    12.30000019   7.92000008  56.33999634
C    11.31999969   7.95000029  57.31999969
C     9.96000004   7.82999992  56.97999954
C     8.93000031   7.82000017  57.95999908
C     7.59999990   7.59999990  57.67000198
C     7.25000000   7.14999962  56.37000275
C     8.21000004   7.11000013  55.38999939
C     9.56999969   7.46999979  55.63999939
C    13.75000000   7.96000004  56.45999908
C    14.40999985   7.37999964  55.34000015
C    15.80000019   7.23000002  55.31000137
C     5.82999992   6.69000053  56.11999893
H     5.39633131   7.22319937  55.27399063
H    10.47000027   6.80999994  53.76999664
H    11.56999969   8.10000038  58.36999893
H     9.28999996   8.07999992  58.95000076
H     6.93000031   7.67000008  58.52000427
H     7.96000004   6.61000013  54.45999908
H    16.46000099   6.94000006  54.50000000
H     5.26000023   6.80000019  57.04999924
H     5.96000004   5.60999966  56.00999832
S    13.89999962   5.05999994  51.18999863
C    11.26000023   4.57999992  51.81999969
C    12.57999992   4.39000034  52.16999817
C    13.00000000   3.68000007  53.34000015
C    12.03999996   3.19999981  54.20000076
C    10.67000008   3.40000010  53.90999603
C     9.64999962   2.73999977  54.65000153
C     8.31999969   2.92000008  54.36000061
C     7.92999983   3.71000004  53.23999786
C     8.89000034   4.26000023  52.43000031
C    10.27999973   4.05000019  52.68000031
C    14.45000076   3.75999975  53.47999954
C    15.01999950   4.57999992  52.48000336
C    16.39000130   4.84000015  52.50999832
C     6.47000027   4.05000019  53.06999969
H     6.09213495   3.77194834  52.08612823
H    10.93000031   5.09999990  50.91999817
H    12.35999966   2.73999977  55.13000107
H     9.98000050   2.28999996  55.59000015
H     7.72000027   2.42000008  55.11000061
H     8.64000034   4.86999989  51.56000137
H    16.90999985   5.26000023  51.65000153
H     5.91000032   3.50000000  53.85000229
H     6.30999994   5.10999966  53.29000092
S    17.69000053   3.19999981  55.89000320
C    20.40999985   3.84000015  55.30000305
C    19.06999969   3.86999989  55.00000000
C    18.57999992   4.40000010  53.75999832
C    19.54000092   4.90000010  52.88999939
C    20.93000031   4.84000015  53.09999847
C    21.90999985   5.31000042  52.18000031
C    23.26000023   5.28999996  52.43999863
C    23.67000198   4.84000015  53.72000122
C    22.76000023   4.39000034  54.64000320
C    21.35999870   4.38000011  54.40000153
C    17.13999939   4.30999994  53.55999756
C    16.53000069   3.54999995  54.59000015
C    15.15999985   3.30000019  54.59000015
C    25.10000038   4.39000034  53.95000076
H    25.51365471   4.63961887  54.92707825
H    20.72999954   3.26999998  56.17000198
H    19.15999985   5.25000000  51.93000031
H    21.54000092   5.65999985  51.20999908
H    23.98999977   5.64000034  51.70999908
H    23.12000084   3.96000004  55.56999969
H    14.70000076   2.91000009  55.48999786
H    25.78000069   4.75000000  53.16999817
H    25.06000137   3.30000019  53.80000305
