96

S    16.95000076   8.53999996  58.87000275
C    19.62000084   8.82999992  58.13000107
C    18.35000038   8.43000031  57.77999878
C    18.01000023   7.76999998  56.56000137
C    19.04000092   7.57000017  55.65999985
C    20.36999893   7.97999954  55.90999985
C    21.40000153   7.53999996  55.02999878
C    22.69000053   7.81000042  55.40999985
C    22.95999908   8.23000050  56.73999786
C    22.00000000   8.43999958  57.70999908
C    20.65999985   8.43000031  57.25000000
C    16.59000015   7.48000050  56.42000198
C    15.90000057   7.94000053  57.56999969
C    14.52999973   8.17000008  57.55000305
C    24.37000084   8.67000008  57.05999756
H    24.76107979   7.99450111  57.82082367
H    19.95000076   9.22999954  59.09000015
H    18.81000137   6.98000002  54.77000427
H    21.11000061   7.02000046  54.12000275
H    23.52999878   7.62000036  54.73999786
H    22.06999969   8.67000008  58.76999664
H    14.09000015   8.61999989  58.43000031
H    24.94999886   8.73000050  56.12999725
H    24.18000031   9.63000011  57.55000305
S    13.38999939   6.94999981  54.00000000
C    10.67000008   7.02000046  54.59999847
C    11.95000076   7.40999985  54.92000198
C    12.30000019   7.88000011  56.23000336
C    11.32999992   8.03999996  57.19999695
C     9.98000050   7.75000000  56.86999893
C     8.86999989   8.00000000  57.71999741
C     7.55000019   7.73999977  57.41000366
C     7.28999996   7.04999971  56.18999863
C     8.30999947   6.89000034  55.27999878
C     9.67000008   7.17000008  55.59000015
C    13.73999977   7.81000042  56.45000076
C    14.46000004   7.18999958  55.38999939
C    15.84000015   7.11999989  55.28999710
C     5.86000013   6.67999983  55.86000061
H     5.39135361   7.37586880  55.16413116
H    10.39999962   6.47000027  53.69999695
H    11.51000023   8.30999947  58.23999786
H     9.22999954   8.19999981  58.72000122
H     6.67000008   7.97999954  58.00000000
H     8.06999969   6.57999992  54.27000046
H    16.38000107   6.86999989  54.38000107
H     5.25000000   6.71999979  56.77000046
H     5.84999990   5.73000002  55.31999969
S    13.63999939   5.36999989  51.07999802
C    10.97000027   4.67999983  51.56000137
C    12.30000019   4.50000000  51.86000061
C    12.71999931   3.71000004  52.97000122
C    11.77999973   3.24000001  53.88000107
C    10.40999985   3.51000023  53.68000031
C     9.39000034   2.91000009  54.47000122
C     8.07999992   2.96999979  54.05000305
C     7.60999966   3.79999995  52.98999786
C     8.60999966   4.39000034  52.25999832
C    10.00000000   4.18000031  52.48000336
C    14.14999962   3.88000011  53.20000076
C    14.80999947   4.63999987  52.19999695
C    16.14999962   5.00999975  52.22999954
C     6.15000010   4.19000006  52.84000015
H     5.67196512   3.75477457  51.96240997
H    10.65999985   5.18000031  50.65000153
H    12.05999947   2.56999993  54.68000031
H     9.61999989   2.16000009  55.21999741
H     7.28999996   2.45000005  54.58000183
H     8.38999939   5.17000008  51.52999878
H    16.56999969   5.75999975  51.56000137
H     5.55999994   3.89999986  53.72000122
H     6.19999981   5.27999973  52.77000046
S    17.35000038   3.44000006  55.66999817
C    20.10000038   3.61999989  54.93999863
C    18.77000046   3.86999989  54.69999695
C    18.37000084   4.46999979  53.47000122
C    19.37999916   5.07999992  52.72999573
C    20.75000000   4.88999987  53.00000000
C    21.78999901   5.38999987  52.15999985
C    23.11000061   5.13000011  52.43999863
C    23.47999954   4.28000021  53.52000427
C    22.53000069   3.84999990  54.41999817
C    21.15999985   4.13000011  54.15000153
C    16.94000053   4.40000010  53.20999908
C    16.27000046   3.78999996  54.29999924
C    14.89999962   3.56999993  54.34000015
C    24.92000198   3.88000011  53.73000336
H    25.33881187   4.32720375  54.63150787
H    20.31999969   2.86999989  55.70000076
H    19.13999939   5.63000011  51.83000183
H    21.51000023   5.98999977  51.30000305
H    23.87000084   5.59000015  51.81000137
H    22.84000015   3.24000001  55.26000214
H    14.39000034   3.07000017  55.15999603
H    25.55999947   4.21999979  52.90000153
H    24.90999985   2.79000020  53.73000336
