96

S    16.92000008   8.23000050  58.70999908
C    19.59000015   8.23999977  58.18000031
C    18.35000038   7.83999968  57.74000168
C    17.97000122   7.51999950  56.39999771
C    19.03000069   7.46000004  55.51000214
C    20.34000015   7.82999992  55.90000153
C    21.38000107   7.81000042  54.93999863
C    22.63999939   8.28999996  55.19000244
C    22.86000061   8.88000011  56.46999741
C    21.91999817   8.84000015  57.47000122
C    20.65000153   8.23999977  57.25000000
C    16.53000069   7.53999996  56.18000031
C    15.81999969   7.88999987  57.36000061
C    14.44000053   8.05999947  57.35000229
C    24.27000046   9.32999992  56.79999924
H    24.72665977   8.60219765  57.47071838
H    19.79999924   8.80000019  59.09000015
H    18.78000069   7.25000000  54.47999954
H    21.18000031   7.42000008  53.94000244
H    23.38999939   8.36999989  54.40999985
H    22.10000038   9.32999992  58.41999817
H    13.93000031   8.52999973  58.18999863
H    24.94999886   9.39000034  55.94999695
H    24.23999977  10.34999943  57.21000290
S    13.30000019   6.98999977  53.64999771
C    10.59000015   6.85999966  54.41999817
C    11.90999985   7.05999947  54.75999832
C    12.30000019   7.44999981  56.07999802
C    11.28000069   7.40000010  57.01000214
C     9.90999985   7.18999958  56.72000122
C     8.85000038   7.40000010  57.64999771
C     7.53999996   7.17999983  57.30999756
C     7.20000029   6.77999973  55.98999786
C     8.18000031   6.63000011  55.04000092
C     9.55000019   6.80999994  55.38000107
C    13.73999977   7.63000011  56.20999908
C    14.40999985   7.28999996  55.00999832
C    15.80000019   7.28999996  55.00999832
C     5.75000000   6.43000031  55.72999954
H     5.37402105   6.99751568  54.87872696
H    10.36000061   6.65000010  53.37999725
H    11.56000042   7.67000008  58.02000046
H     9.11000061   7.65999985  58.67000198
H     6.80999994   7.44999981  58.06999969
H     7.99000025   6.46000004  53.97999573
H    16.31000137   7.00999975  54.09999847
H     5.22000027   6.72999954  56.63999939
H     5.75999975   5.36000013  55.48999786
S    17.21999931   8.88000011  52.64999771
C    19.86999893   9.00000000  51.97000122
C    18.63000107   8.52999973  51.62000275
C    18.27000046   8.05000019  50.31999969
C    19.31999969   7.92000008  49.43999863
C    20.59999847   8.47000027  49.69999695
C    21.63000107   8.36000061  48.72000122
C    22.92000008   8.67999935  49.09000015
C    23.23999786   9.22000027  50.35999680
C    22.23999977   9.42000008  51.27999878
C    20.89999962   9.01000023  50.98999786
C    16.81999969   8.00000000  50.15999603
C    16.13000107   8.43000031  51.31999969
C    14.77000046   8.69999981  51.38999939
C    24.64999962   9.68999958  50.65999985
H    25.25370216   8.99396610  51.24239349
H    20.00000000   9.35000038  52.98999786
H    19.13999939   7.44999981  48.47000122
H    21.42000008   7.76000023  47.84000015
H    23.64000130   8.53999996  48.29000092
H    22.44999886   9.61000061  52.32999802
H    14.28999996   8.96000004  52.32999802
H    25.17000008   9.98999977  49.73999786
H    24.56000137  10.55999947  51.31000137
S    13.61999989   7.62000036  47.80000305
C    10.92000008   7.42999983  48.43999863
C    12.18000031   7.86000013  48.80000305
C    12.55000019   8.34999943  50.08999634
C    11.51000023   8.43000031  51.00000000
C    10.19000053   8.01999950  50.66999817
C     9.19999981   8.05999947  51.69000244
C     7.90000010   7.88000011  51.30000305
C     7.55999994   7.44999981  49.99000168
C     8.47999954   7.39000034  48.96999741
C     9.84000015   7.59999990  49.34000015
C    13.97999954   8.52000046  50.25000000
C    14.70999908   8.18000031  49.08000183
C    16.06999969   7.88000011  48.99000168
C     6.12999964   7.09000015  49.65999985
H     5.78851223   7.59511709  48.75648117
H    10.72000027   7.04999971  47.43999863
H    11.72999954   8.67000008  52.04000092
H     9.56999969   8.40999985  52.65999603
H     7.13999987   8.01000023  52.06999969
H     8.25000000   7.11000013  47.95000076
H    16.47999954   7.53000021  48.04999924
H     5.45000029   7.25000000  50.50000000
H     6.05000019   6.01000023  49.47999954
