96

S    17.00000000   8.93000031  58.63999939
C    19.72999954   8.80999947  57.91999817
C    18.40999985   8.50000000  57.65999603
C    18.07999992   7.92999983  56.38999939
C    19.04000092   7.68000031  55.43000031
C    20.40999985   7.96999979  55.68999863
C    21.44000053   7.85000038  54.71000290
C    22.76000023   8.10999966  55.01999664
C    23.05999947   8.67000008  56.27999878
C    22.07999992   8.93999958  57.21000290
C    20.72999954   8.59000015  56.93999863
C    16.62999916   7.82999992  56.30000305
C    15.88999939   8.27000046  57.42000198
C    14.50000000   8.32999992  57.45999908
C    24.51000023   9.02999973  56.56999969
H    25.00860596   8.55988407  57.41763306
H    20.06999969   9.19999981  58.87000275
H    18.81000137   7.44999981  54.38999939
H    21.18000031   7.46999979  53.73000336
H    23.57000160   8.07999992  54.29000092
H    22.20999908   9.44000053  58.15999985
H    14.00000000   8.82999992  58.27999878
H    25.05000114   8.71000004  55.66999817
H    24.72999954  10.08999920  56.72000122
S    13.43999958   6.72999954  54.00000000
C    10.72999954   7.28999996  54.36999893
C    12.02999973   7.46000004  54.78000259
C    12.39999962   7.96000004  56.06999969
C    11.42000008   8.34999943  56.95999908
C    10.06999969   8.13000011  56.58000183
C     9.06000042   8.23000050  57.57999802
C     7.73999977   7.95000029  57.32999802
C     7.36999989   7.36999989  56.09000397
C     8.36999989   7.11999989  55.17000198
C     9.70000076   7.59999990  55.28999710
C    13.82999992   7.83999968  56.32999802
C    14.56999969   7.28999996  55.25000000
C    15.95000076   7.36000013  55.15999603
C     5.92999983   6.98000002  55.87999725
H     5.53106976   7.47866249  54.99665833
H    10.47999954   6.65999985  53.52000427
H    11.65999985   8.61999989  57.97999954
H     9.44999981   8.34999943  58.59000397
H     7.03000021   8.02999973  58.15000153
H     8.11999989   6.63999987  54.22999954
H    16.48999977   7.03999996  54.27000046
H     5.38000011   7.18999958  56.81000137
H     5.86000013   5.89999962  55.72000122
S    16.86000061   9.04999924  52.84999847
C    19.63000107   9.17000008  52.18999863
C    18.31999969   8.89999962  51.86000061
C    17.97000122   8.42000008  50.54999924
C    18.96000099   8.09000015  49.65000153
C    20.29000092   8.47999954  49.92000198
C    21.30000114   8.31999969  48.93000031
C    22.62000084   8.67000008  49.13000107
C    22.92000008   9.26999950  50.38999939
C    21.97999954   9.47000027  51.37000275
C    20.62999916   9.04999924  51.19999695
C    16.53000069   8.40999985  50.34000015
C    15.77000046   8.82999992  51.46999741
C    14.37999916   8.80999947  51.47999573
C    24.36000061   9.70000076  50.54999924
H    24.88795662   9.03648758  51.23491669
H    19.85999870   9.57999992  53.16999817
H    18.77000046   7.51999950  48.74000168
H    20.92000008   7.86999989  48.02000046
H    23.35000038   8.56000042  48.34000015
H    22.34000015   9.98000050  52.25999832
H    13.90999985   8.88000011  52.45999908
H    24.86999893   9.52000046  49.59999847
H    24.46000099  10.72999954  50.93000031
S    13.36999989   7.50000000  47.88000107
C    10.64000034   7.27999973  48.60000229
C    11.94000053   7.59000015  48.92000198
C    12.28000069   8.03999996  50.24000168
C    11.28000069   8.25000000  51.17000198
C     9.90999985   8.06999969  50.84999847
C     8.85000038   8.48999977  51.70000076
C     7.55000019   8.19000053  51.37000275
C     7.30000019   7.44000006  50.19000244
C     8.28999996   7.05999947  49.31999969
C     9.63000011   7.46999979  49.58000183
C    13.71000099   8.28999996  50.37000275
C    14.46000004   7.96999979  49.20999908
C    15.84000015   8.00000000  49.19000244
C     5.89999962   7.00000000  49.81999969
H     5.57837296   7.65754890  49.01235580
H    10.52000046   6.90000010  47.58999634
H    11.46000004   8.64000034  52.16999817
H     8.97999954   8.82999992  52.71999741
H     6.67000008   8.52000046  51.91999817
H     7.96999979   6.52999973  48.41999817
H    16.35000038   7.73000002  48.27000046
H     5.31000042   7.07999992  50.75000000
H     5.96000004   5.97000027  49.45000076
