96

S    17.04000092   8.30000019  58.81000137
C    19.77000046   8.36999989  58.09999847
C    18.46999931   8.01000023  57.80000305
C    18.09000015   7.55999994  56.50000000
C    19.03000069   7.55999994  55.47999954
C    20.36999893   7.94000053  55.70999908
C    21.45999908   7.72000027  54.80999756
C    22.73999977   8.09000015  55.14999771
C    23.05999947   8.51000023  56.47999573
C    22.06999969   8.56000042  57.43000031
C    20.72000122   8.30000019  57.05999756
C    16.64999962   7.44000006  56.35000229
C    15.93000031   7.88000011  57.49000168
C    14.55000019   8.02999973  57.51999664
C    24.51999855   8.75000000  56.77000046
H    24.82567978   8.25948811  57.69415283
H    20.05000114   8.73000050  59.09000015
H    18.72999954   7.17999983  54.51000214
H    21.18000031   7.26999998  53.86000061
H    23.46999931   8.02999973  54.34999847
H    22.30999947   8.67000008  58.48999786
H    13.94999981   8.38999939  58.34999847
H    25.23999977   8.48999977  55.97999954
H    24.67000008   9.81999969  56.90999985
S    13.40999985   7.17999983  53.86000061
C    10.67000008   7.28999996  54.54000092
C    12.00000000   7.44000006  54.88999939
C    12.36999989   7.75000000  56.24000168
C    11.36000061   7.88999987  57.18000031
C     9.98999977   7.76000023  56.86999893
C     8.86999989   7.90000010  57.74000168
C     7.55000019   7.73999977  57.37999725
C     7.23999977   7.23000002  56.09000397
C     8.28999996   7.21000004  55.20000076
C     9.64999962   7.50000000  55.50000000
C    13.81999969   7.82999992  56.35000229
C    14.55000019   7.44999981  55.20000076
C    15.93000031   7.26999998  55.15999603
C     5.88000011   6.67999983  55.72999954
H     5.38317108   7.32587814  55.00605011
H    10.50000000   7.05999947  53.48999786
H    11.68000031   8.03999996  58.20999908
H     9.19000053   8.03999996  58.76999664
H     6.77999973   7.65999985  58.13999939
H     8.03999996   6.77999973  54.22999954
H    16.45000076   7.23000002  54.20999908
H     5.26999998   6.60000038  56.63999939
H     6.12999964   5.72000027  55.27000046
S    13.68999958   5.05000019  50.97999954
C    11.02000046   4.74000025  51.66999817
C    12.34000015   4.48000002  51.97999954
C    12.81999969   3.96000004  53.22999954
C    11.79999924   3.56999993  54.08000183
C    10.42000008   3.75999975  53.81999969
C     9.39000034   3.28000021  54.68000031
C     8.07999992   3.44000006  54.31000137
C     7.67000008   4.09999990  53.11999893
C     8.64000034   4.55000019  52.23999786
C    10.01000023   4.33999968  52.56000137
C    14.27000046   3.94000006  53.34000015
C    14.85999966   4.59000015  52.22999954
C    16.21999931   4.88999987  52.25000000
C     6.23000050   4.35999966  52.75000000
H     5.88896990   3.70635867  51.94715881
H    10.72999954   5.29999971  50.77999878
H    11.97000027   2.89999986  54.92000198
H     9.70000076   2.64999986  55.51000214
H     7.30000019   3.02999997  54.93999863
H     8.39999962   4.99000025  51.27999878
H    16.67000008   5.47999954  51.45000076
H     5.73000002   4.11999989  53.69999695
H     6.05000019   5.42999983  52.58999634
S    17.56000137   3.49000001  55.68999863
C    20.22999954   4.19000006  55.07999802
C    18.89000130   4.21000004  54.75999832
C    18.48999977   4.71000004  53.47999954
C    19.40999985   5.21000004  52.57999802
C    20.79000092   5.05000019  52.84000015
C    21.83000183   5.45000029  51.95000076
C    23.13999939   5.32000017  52.31999969
C    23.50000000   4.71000004  53.54999924
C    22.56999969   4.30000019  54.47999954
C    21.21000099   4.53999996  54.12000275
C    17.05999947   4.51000023  53.29999924
C    16.42000008   3.86000013  54.38000107
C    15.05000019   3.61999989  54.45999908
C    24.99000168   4.53999996  53.74000168
H    25.34630966   4.79654217  54.73766327
H    20.53999901   3.65999985  55.97000122
H    19.15999985   5.52999973  51.56999969
H    21.51000023   5.84999990  50.97999954
H    24.00000000   5.53999996  51.69000244
H    22.79000092   3.76999998  55.40000153
H    14.65000057   3.30999994  55.41999817
H    25.48000145   5.19000006  53.00000000
H    25.22000122   3.50000000  53.44999695
