96

S    17.20000076   8.46000004  58.75000000
C    19.88000107   8.93000031  58.00000000
C    18.59000015   8.63000011  57.65999603
C    18.27999878   8.05999947  56.38000107
C    19.27000046   7.92000008  55.41999817
C    20.59999847   8.23000050  55.77999878
C    21.65999985   7.96000004  54.86999893
C    22.96999931   8.30000019  55.17000198
C    23.28000069   8.90999985  56.40999603
C    22.29999924   9.07999992  57.36000061
C    20.95000076   8.71000004  57.09000015
C    16.88999939   7.63999987  56.25999832
C    16.17000008   7.82000017  57.45999908
C    14.78000069   7.76000023  57.57999802
C    24.69000053   9.26000023  56.81000137
H    25.05320168   8.61193466  57.60762024
H    20.26000023   9.13999939  59.00000000
H    19.17000008   7.39000034  54.47999954
H    21.37000084   7.55000019  53.90999603
H    23.72999954   8.14000034  54.40999985
H    22.43000031   9.63000011  58.29000092
H    14.25000000   7.86000013  58.52000427
H    25.36000061   9.19000053  55.93999863
H    24.70999908  10.29000092  57.19999695
S    13.60999966   7.07999992  53.87000275
C    10.92000008   6.74000025  54.47000122
C    12.20000076   6.91999960  54.93999863
C    12.56000042   7.22000027  56.29000092
C    11.51000023   7.46000004  57.16999817
C    10.19999981   7.13999987  56.77000046
C     9.03999996   7.37999964  57.56000137
C     7.75000000   7.11999989  57.14000320
C     7.42999983   6.67999983  55.83000183
C     8.52999973   6.52999973  55.01999664
C     9.88000011   6.71000004  55.43000031
C    13.97999954   7.44999981  56.46999741
C    14.70000076   7.28999996  55.26000214
C    16.07999992   7.17999983  55.20999908
C     5.98000002   6.44000006  55.45000076
H     5.44552612   7.15975809  54.83001328
H    10.69000053   6.47000027  53.43999863
H    11.54000092   7.94000053  58.13999939
H     9.11000061   7.67000008  58.61000061
H     6.84000015   7.40000010  57.65999603
H     8.30999947   6.30000019  53.97999573
H    16.54000092   6.93000031  54.26000214
H     5.55000019   6.40999985  56.45000076
H     5.86999989   5.45000029  54.99000168
S    14.14000034   5.01999950  50.70000076
C    11.42000008   4.67000008  51.18999863
C    12.71999931   4.57999992  51.65999985
C    13.09000015   4.00999975  52.90999985
C    12.11999989   3.40999985  53.68000031
C    10.76000023   3.51000023  53.29999924
C     9.72000027   2.87999988  54.05000305
C     8.39999962   3.15000010  53.75999832
C     8.01000023   3.88000011  52.61000061
C     9.03999996   4.21999979  51.76000214
C    10.43000031   4.21000004  52.09000015
C    14.52000046   4.09999990  53.16999817
C    15.21999931   4.65999985  52.06999969
C    16.56999969   4.98000002  52.11999893
C     6.53999996   4.05999994  52.29999924
H     6.03453875   3.17722321  51.90844727
H    11.10999966   5.09999990  50.24000168
H    12.44999981   2.98000002  54.61999893
H     9.94999981   2.28999996  54.93000031
H     7.57999992   2.79999995  54.38999939
H     8.76999950   4.61000013  50.77999878
H    17.13999939   5.53999996  51.38000107
H     6.11999989   4.23000002  53.29999924
H     6.35999966   4.99000025  51.75000000
S    17.77000046   3.38999987  55.58000183
C    20.45999908   3.98999977  54.99000168
C    19.11999893   4.09999990  54.66999817
C    18.72999954   4.57999992  53.37999725
C    19.70000076   5.01999950  52.50000000
C    21.05999947   5.07999992  52.87000275
C    22.09000015   5.50000000  51.98999786
C    23.42000008   5.35000038  52.32999802
C    23.81000137   4.76000023  53.55999756
C    22.84000015   4.30000019  54.41999817
C    21.45999908   4.46999979  54.10999680
C    17.28000069   4.59999990  53.27000046
C    16.63999939   3.88999987  54.31000137
C    15.26999950   3.63999987  54.26000214
C    25.29999924   4.55000019  53.75999832
H    25.70513535   4.79876804  54.74085617
H    20.79999924   3.42000008  55.84999847
H    19.44000053   5.33999968  51.49000168
H    21.77999878   5.84000015  51.00000000
H    24.20000076   5.58000040  51.62000275
H    23.05999947   3.84999990  55.38000107
H    14.78000069   3.09999990  55.06000137
H    25.81000137   5.05000019  52.94000244
H    25.39999962   3.48000002  53.53000259
