96

S    17.00000000   8.18000031  58.90999603
C    19.70999908   8.23999977  58.13000107
C    18.38999939   8.01999950  57.81999969
C    18.02000046   7.69000006  56.47999573
C    18.96000099   7.35000038  55.52000046
C    20.32999992   7.55000019  55.81999969
C    21.35000038   7.30000019  54.86000061
C    22.65999985   7.50000000  55.20999908
C    23.05000114   7.99000025  56.49000168
C    22.06999969   8.27000046  57.41000366
C    20.69000053   8.00000000  57.14000320
C    16.56999969   7.55999994  56.31999969
C    15.90999985   7.81000042  57.55000305
C    14.52999973   7.78999996  57.63999939
C    24.47000122   8.40999985  56.79000092
H    24.81818008   7.96234083  57.72084427
H    19.86999893   8.59000015  59.15000153
H    18.61999893   7.13999987  54.51000214
H    21.12999916   7.03000021  53.82999802
H    23.43000031   7.28999996  54.47000122
H    22.32000160   8.93000031  58.22999954
H    14.06000042   8.19000053  58.54000092
H    25.15000153   8.05999947  56.00999832
H    24.64999962   9.48999977  56.86000061
S    13.38000107   6.81999969  53.93000031
C    10.72000027   6.84999990  54.56999969
C    11.98999977   7.14999962  54.98000336
C    12.35999966   7.57999992  56.30000305
C    11.35000038   7.82000017  57.19999695
C    10.01000023   7.53000021  56.84999847
C     8.94999981   7.75000000  57.77999878
C     7.63000011   7.46000004  57.54000092
C     7.36000013   6.80000019  56.31000137
C     8.31999969   6.72999954  55.33000183
C     9.70000076   7.00999975  55.54999924
C    13.81000042   7.57999992  56.45999908
C    14.48999977   7.20000029  55.27000046
C    15.86999989   7.11000013  55.20000076
C     5.93999958   6.51999998  55.84999847
H     5.54838705   7.22490311  55.11661530
H    10.60999966   6.44000006  53.57999802
H    11.52999973   8.09000015  58.23999786
H     9.11999989   8.17000008  58.76999664
H     6.81999969   7.78999996  58.16999817
H     8.05999947   6.26999950  54.38000107
H    16.43000031   6.75000000  54.34000015
H     5.38999987   6.61000013  56.79999924
H     5.86999989   5.49000025  55.50000000
S    17.71999931   8.69999981  52.43999863
C    20.38999939   8.78999996  51.86000061
C    19.13999939   8.48999977  51.39999771
C    18.72999954   8.15999985  50.06000137
C    19.76000023   7.90999985  49.16999817
C    21.11000061   8.10000038  49.55999756
C    22.18000031   8.07999992  48.61999893
C    23.45000076   8.50000000  48.92000198
C    23.77000046   8.94999981  50.22999573
C    22.72000122   9.09000015  51.10000229
C    21.38000107   8.69000053  50.84999847
C    17.28999901   7.96000004  49.97000122
C    16.57999992   8.27999973  51.14999771
C    15.19999981   8.28999996  51.32999802
C    25.13999939   9.38000011  50.70999908
H    25.47447968   8.84625626  51.59957123
H    20.55000114   9.11000061  52.88999939
H    19.51000023   7.57999992  48.15999985
H    21.84000015   7.90999985  47.60000229
H    24.17000008   8.52000046  48.09999847
H    22.92000008   9.40999985  52.11999893
H    14.68000031   8.38000011  52.28000259
H    25.79000092   9.15999985  49.85000229
H    25.27000046  10.47000027  50.77000046
S    14.00000000   7.51999950  47.58999634
C    11.35000038   7.34000015  48.36999893
C    12.61000061   7.82000017  48.66000366
C    13.03999996   8.23000050  49.95999908
C    12.03999996   8.32999992  50.90000153
C    10.70000076   7.96000004  50.63000107
C     9.61000061   7.99000025  51.55000305
C     8.34999943   7.49000025  51.29000092
C     8.06999969   7.03999996  49.98000336
C     9.00000000   7.09999990  48.96999741
C    10.34000015   7.36999989  49.36999893
C    14.47999954   8.14000034  50.13999939
C    15.14000034   7.81000042  48.92000198
C    16.51000023   7.63000011  48.86000061
C     6.63000011   6.72999954  49.64000320
H     6.29557085   7.04308224  48.65094376
H    11.05999947   7.09000015  47.35000229
H    12.28000069   8.57999992  51.93000031
H     9.81999969   8.30999947  52.56999969
H     7.60999966   7.50999975  52.08000183
H     8.82000065   6.91999960  47.90999985
H    17.04000092   7.16000032  48.02999878
H     6.10000038   7.23000002  50.45000076
H     6.42000008   5.65999985  49.79999924
