96

S    16.77000046   8.22000027  59.03999710
C    19.47000122   8.32999992  58.36000061
C    18.20000076   7.95000029  58.01000214
C    17.86999893   7.59000015  56.65999985
C    18.88000107   7.51999950  55.72999954
C    20.23999977   7.76000023  56.06999969
C    21.34000015   7.82000017  55.17000198
C    22.59000015   8.27999973  55.52000046
C    22.85000038   8.67000008  56.86000061
C    21.80999947   8.69000053  57.76000214
C    20.50000000   8.25000000  57.38999939
C    16.43000031   7.69000006  56.42000198
C    15.72999954   8.00000000  57.62000275
C    14.34999943   8.17000008  57.65999603
C    24.13999939   9.31999969  57.30999756
H    24.76870155   8.61985397  57.86011505
H    19.67000008   8.76000023  59.34000015
H    18.65999985   7.30000019  54.68999863
H    21.12999916   7.44000006  54.16999817
H    23.38999939   8.19000053  54.79000092
H    21.94000053   9.18000031  58.72000122
H    13.85000038   8.52999973  58.55999756
H    24.59000015   9.72999954  56.38999939
H    23.97999954  10.19999981  57.93000031
S    13.32999992   6.85999966  54.02999878
C    10.64000034   6.71000004  54.72000122
C    11.90000057   7.16000032  55.04000092
C    12.18999958   7.82999992  56.26999664
C    11.17000008   8.05000019  57.16999817
C     9.88000011   7.57000017  56.86000061
C     8.78999996   7.76000023  57.76000214
C     7.53000021   7.32999992  57.45999908
C     7.22000027   6.80000019  56.18000031
C     8.22000027   6.67000008  55.22999573
C     9.55999947   6.90999985  55.61999893
C    13.63000011   7.90999985  56.49000168
C    14.34000015   7.53000021  55.33000183
C    15.72999954   7.50000000  55.22999573
C     5.78000021   6.44999981  55.90000153
H     5.39716196   7.02425718  55.05633926
H    10.47999954   6.17999983  53.77999878
H    11.30000019   8.55000019  58.13000107
H     8.94999981   8.23000050  58.73000336
H     6.76000023   7.39000034  58.22000122
H     8.11999989   6.37000036  54.20000076
H    16.15999985   7.30000019  54.25000000
H     5.14999962   6.71000004  56.76000214
H     5.75000000   5.36999989  55.75000000
S    13.68000031   4.97000027  51.18000031
C    11.03999996   4.36999989  51.72000122
C    12.35999966   4.26000023  52.11999893
C    12.76999950   3.73000002  53.37999725
C    11.77000046   3.21000004  54.18000031
C    10.40999985   3.17999983  53.76999664
C     9.44000053   2.66000009  54.66999817
C     8.11999989   2.94999981  54.45000076
C     7.69000006   3.60000014  53.27000046
C     8.63000011   4.13000011  52.41000366
C    10.01999950   3.91999984  52.60000229
C    14.22000027   3.81999993  53.52000427
C    14.82999992   4.51999998  52.44999695
C    16.13000107   5.01999950  52.55000305
C     6.24000025   4.00000000  53.08000183
H     5.92762184   3.78701520  52.05767059
H    10.80999947   5.00000000  50.86000061
H    12.02999973   2.63999987  55.06999969
H     9.78999996   2.26999998  55.63000107
H     7.48000050   2.94999981  55.34000015
H     8.46000004   4.79999971  51.56999969
H    16.59000015   5.49000025  51.69000244
H     5.68000031   3.35000014  53.75999832
H     5.97000027   5.03000021  53.31999969
S    17.57999992   3.19999981  55.73999786
C    20.25000000   3.89999986  55.05000305
C    18.89000130   4.00999975  54.86999893
C    18.37000084   4.67000008  53.69999695
C    19.23999977   5.28999996  52.81999969
C    20.63999939   5.25000000  53.00000000
C    21.63000107   5.78999996  52.12999725
C    22.98000145   5.69000006  52.35000229
C    23.40999985   5.07000017  53.54999924
C    22.53000069   4.40000010  54.36999893
C    21.14000130   4.55999994  54.15999985
C    16.92000008   4.55000019  53.60000229
C    16.34000015   3.70000005  54.58000183
C    15.01999950   3.25999999  54.52000046
C    24.86999893   4.75000000  53.79000092
H    25.22777176   5.06483984  54.77029419
H    20.61000061   3.30000019  55.87999725
H    18.89999962   5.72000027  51.88000107
H    21.28999901   6.30999994  51.23000336
H    23.67000198   6.01000023  51.58000183
H    22.86000061   3.67000008  55.11000061
H    14.57999992   2.50999975  55.17000198
H    25.51000214   5.05999994  52.95000076
H    24.90999985   3.65000010  53.73000336
