96

S    17.00000000   8.82000065  59.13999939
C    19.71999931   9.15999985  58.40000153
C    18.42000008   8.82999992  58.08000183
C    18.11000061   8.38000011  56.76000214
C    19.11999893   8.06999969  55.86999893
C    20.45000076   8.46000004  56.14999771
C    21.52000046   8.23000050  55.24000168
C    22.82999992   8.47999954  55.59999847
C    23.11000061   9.01000023  56.88999939
C    22.11000061   9.30999947  57.77999878
C    20.76999855   8.97000027  57.45999908
C    16.67000008   8.27999973  56.58000183
C    15.92000008   8.45000076  57.77999878
C    14.52999973   8.42000008  57.81000137
C    24.50000000   9.52000046  57.19999695
H    24.90995598   8.98281479  58.05525589
H    19.93999863   9.48000050  59.40999985
H    18.96999931   7.88000011  54.80999756
H    21.31999969   7.94000053  54.20999908
H    23.68999863   8.27000046  54.98000336
H    22.32000160   9.73999977  58.75999832
H    14.09999943   8.57999992  58.80000305
H    25.17999840   9.30000019  56.37000275
H    24.50000000  10.59999943  57.39999771
S    13.48999977   7.82000017  54.01000214
C    10.77000046   7.46000004  54.64000320
C    12.05999947   7.71000004  55.06000137
C    12.38000011   8.01999950  56.42000198
C    11.32999992   8.19999981  57.29999924
C    10.01000023   7.85000038  56.93000031
C     8.94999981   7.86999989  57.87000275
C     7.67000008   7.50000000  57.52999878
C     7.39000034   7.07000017  56.20999908
C     8.36999989   7.11999989  55.24000168
C     9.70000076   7.48000050  55.56999969
C    13.81000042   8.15999985  56.63999939
C    14.52999973   8.10000038  55.41999817
C    15.92000008   8.06999969  55.41999817
C     6.00000000   6.67000008  55.77000046
H     5.50082684   7.38310480  55.11394501
H    10.57000065   7.13000011  53.62999725
H    11.54999924   8.52999973  58.31999969
H     9.22999954   8.15999985  58.88000107
H     6.94000006   7.50000000  58.34000015
H     8.10999966   6.93000031  54.20000076
H    16.44000053   7.88000011  54.47999954
H     5.36999989   6.42000008  56.63999939
H     6.05999994   5.73000002  55.21999741
S    13.59000015   5.65999985  51.19999695
C    10.93999958   4.94999981  51.72999954
C    12.25999928   4.92999983  52.11999893
C    12.67000008   4.26999998  53.31999969
C    11.69000053   3.71000004  54.12000275
C    10.31000042   3.91000009  53.86000061
C     9.25000000   3.40999985  54.65999985
C     7.94000053   3.45000005  54.23999786
C     7.57000017   4.09999990  53.02999878
C     8.55000019   4.65000010  52.23999786
C     9.92000008   4.46999979  52.60000229
C    14.09000015   4.55999994  53.53000259
C    14.72000027   5.33999968  52.52999878
C    16.02000046   5.80999947  52.60000229
C     6.11000013   4.38000011  52.77999878
H     5.76798010   4.01660395  51.81094360
H    10.64000034   5.44000053  50.80999756
H    12.02000046   3.05999994  54.92000198
H     9.35999966   2.87999988  55.59999847
H     7.23000002   2.94999981  54.89999771
H     8.39999962   5.45000029  51.52000046
H    16.43000031   6.42000008  51.79000092
H     5.45000029   3.97000027  53.54999924
H     5.96000004   5.46999979  52.77000046
S    17.40999985   3.81999993  55.75000000
C    20.05000114   4.50000000  55.11000061
C    18.71000099   4.59000015  54.81999969
C    18.30999947   5.35000038  53.68000031
C    19.22999954   5.84999990  52.77999878
C    20.61000061   5.73999977  53.02999878
C    21.64999962   6.23000050  52.18000031
C    22.96999931   5.97000027  52.44999695
C    23.36999893   5.19999981  53.57999802
C    22.39999962   4.81999969  54.48999786
C    21.02000046   5.05999994  54.22999954
C    16.84999847   5.36999989  53.63999939
C    16.25000000   4.53000021  54.61000061
C    14.93000031   4.11000013  54.54999924
C    24.82000160   4.86999989  53.81000137
H    25.29779053   5.27647877  54.70140076
H    20.43000031   3.96000004  55.97000122
H    18.92000008   6.34000015  51.86000061
H    21.45999908   6.85999966  51.31999969
H    23.67000198   6.42000008  51.75000000
H    22.67000008   4.32000017  55.40999985
H    14.68999958   3.33999991  55.27999878
H    25.50000000   4.98000002  52.95000076
H    24.63000107   3.78999996  53.92000198
