96

S    16.72999954   8.75000000  58.60000229
C    19.40999985   9.06999969  57.91999817
C    18.17000008   8.59000015  57.57999802
C    17.81999969   8.05000019  56.30000305
C    18.89999962   7.82000017  55.47999954
C    20.22000122   8.27000046  55.72000122
C    21.31999969   8.17000008  54.81999969
C    22.56999969   8.60999966  55.19000244
C    22.86000061   9.03999996  56.51000214
C    21.80000114   9.22000027  57.36999893
C    20.48000145   8.82999992  57.02000046
C    16.38000107   7.90999985  56.13999939
C    15.62999916   8.26000023  57.29999924
C    14.26000023   8.51000023  57.27000427
C    24.25000000   9.48999977  56.90000153
H    24.67071342   8.82684135  57.65585709
H    19.56999969   9.53999996  58.88999939
H    18.78000069   7.26000023  54.55999756
H    21.27000046   7.73000002  53.82999802
H    23.36999893   8.64000034  54.45000076
H    21.96000099   9.80000019  58.27999878
H    13.75000000   9.13999939  57.98999786
H    24.84999847   9.53999996  55.97999954
H    24.18000031  10.51000023  57.29999924
S    13.20000076   7.26999998  53.73000336
C    10.42000008   7.34000015  54.40000153
C    11.73999977   7.62000036  54.65999985
C    12.05999947   8.14000034  55.96000290
C    11.10000038   8.23000050  56.95000076
C     9.75000000   7.92000008  56.68000031
C     8.76000023   7.92000008  57.70000076
C     7.46000004   7.64999962  57.34000397
C     7.07999992   7.14999962  56.05999756
C     8.03999996   7.05999947  55.07999802
C     9.38000011   7.44000006  55.37000275
C    13.50000000   8.19000053  56.13999939
C    14.27999973   7.65999985  55.07999802
C    15.65000057   7.44000006  55.04000092
C     5.61999989   6.94999981  55.70999908
H     5.29832458   7.70057583  54.98801422
H    10.21999931   7.04999971  53.36999893
H    11.38000011   8.26000023  58.00000000
H     9.09000015   8.13000011  58.70999908
H     6.71000004   7.55000019  58.11999893
H     7.72000027   6.94999981  54.05000305
H    16.10999870   7.07000017  54.13000107
H     4.92000008   6.94999981  56.55000305
H     5.59999990   5.96000004  55.21999741
S    17.05000114   9.42000008  52.57999802
C    19.72999954   9.43000031  52.01000214
C    18.46999931   9.13999939  51.55000305
C    18.22999954   8.76999950  50.18000031
C    19.32999992   8.53999996  49.36999893
C    20.65000153   8.69999981  49.86000061
C    21.81999969   8.63000011  49.05000305
C    23.08000183   9.02999973  49.41999817
C    23.25000000   9.48999977  50.76000214
C    22.17000008   9.57999992  51.60999680
C    20.86000061   9.22999954  51.18000031
C    16.79000092   8.76999950  50.00000000
C    16.03999901   9.15000057  51.13999939
C    14.65000057   9.17000008  51.20999908
C    24.57999992  10.00000000  51.25000000
H    25.10438538   9.22050762  51.80273056
H    19.78000069   9.86999989  53.01000214
H    19.14999962   8.14999962  48.37999725
H    21.63999939   8.27000046  48.04000092
H    23.94000053   9.02999973  48.76999664
H    22.30999947  10.10000038  52.55000305
H    14.01999950   9.35000038  52.08000183
H    25.23999977  10.31999969  50.44000244
H    24.43000031  10.86999989  51.90000153
S    13.55999947   7.86999989  47.64999771
C    10.84000015   7.77999973  48.34999847
C    12.15000057   8.01999950  48.72000122
C    12.46000099   8.51000023  50.01999664
C    11.43000031   8.84000015  50.89000320
C    10.08999920   8.56000042  50.54999924
C     9.01000023   8.69000053  51.46999741
C     7.69999981   8.36000061  51.18999863
C     7.40999985   7.96000004  49.85000229
C     8.39999962   7.95000029  48.89999771
C     9.77999973   8.05999947  49.23999786
C    13.89000034   8.71000004  50.13000107
C    14.63999939   8.30000019  48.99000168
C    16.03000069   8.28999996  48.93000031
C     6.02999973   7.44000006  49.51000214
H     5.52521801   8.09408474  48.79903793
H    10.60999966   7.37999964  47.36000061
H    11.61000061   9.06000042  51.93999863
H     9.19999981   8.80000019  52.52999878
H     6.98999977   8.11999989  51.97000122
H     8.14000034   7.71000004  47.87000275
H    16.52000046   7.88999987  48.04999924
H     5.44000053   7.20000029  50.40999985
H     6.14000034   6.44999981  49.05000305
