96

S    16.63999939   7.76999998  58.88999939
C    19.29999924   8.21000004  58.11999893
C    18.04999924   7.69000006  57.83000183
C    17.68000031   7.26999998  56.51000214
C    18.71999931   7.07000017  55.61999893
C    20.06000137   7.40999985  55.91999817
C    21.11000061   7.26000023  54.95999908
C    22.39000130   7.59999990  55.31999969
C    22.65999985   8.21000004  56.56999969
C    21.64999962   8.52000046  57.45999908
C    20.35000038   8.02999973  57.18000031
C    16.23999977   7.14999962  56.37000275
C    15.52000046   7.48000050  57.54000092
C    14.13000011   7.51999950  57.61000061
C    24.04999924   8.67000008  56.95000076
H    24.61246109   7.96514273  57.56230164
H    19.30999947   8.84000015  59.01000214
H    18.40999985   6.85999966  54.59999847
H    20.85000038   6.91999960  53.96999741
H    23.21000099   7.35000038  54.65000153
H    21.90999985   8.92000008  58.43999863
H    13.64999962   7.96000004  58.47999954
H    24.59000015   8.90999985  56.03000259
H    23.90999985   9.61999989  57.48000336
S    13.05999947   6.38999987  54.01000214
C    10.27999973   6.37000036  54.69999695
C    11.61000061   6.51000023  55.02999878
C    11.97000027   7.04999971  56.31000137
C    11.02000046   7.36000013  57.25999832
C     9.65999985   7.11000013  56.93999863
C     8.65999985   7.34000015  57.91999817
C     7.35000038   6.98999977  57.70000076
C     6.89000034   6.54999971  56.43000031
C     7.88000011   6.26999950  55.52000046
C     9.26000023   6.60000038  55.65999985
C    13.40999985   7.21000004  56.45999908
C    14.15999985   6.90000010  55.30000305
C    15.54999924   6.81999969  55.20000076
C     5.47999954   6.10000038  56.11999893
H     5.13082552   6.45630074  55.15085983
H     9.89999962   6.15000010  53.70999908
H    11.19999981   7.76000023  58.26000214
H     8.97000027   7.76000023  58.87000275
H     6.71999979   7.09999990  58.56999969
H     7.63000011   5.78999996  54.56999969
H    16.01000023   6.50000000  54.27000046
H     4.88000011   6.56000042  56.90999985
H     5.27999973   5.01999950  56.17000198
S    17.05999947   8.23000050  52.71999741
C    19.76000023   8.56999969  52.15999985
C    18.52000046   8.15999985  51.72999954
C    18.22999954   7.76999998  50.38000107
C    19.29000092   7.75000000  49.48999786
C    20.62000084   8.01999950  49.89999771
C    21.75000000   8.00000000  49.03999710
C    23.01000214   8.27000046  49.52000046
C    23.22000122   8.82000065  50.80999756
C    22.13999939   8.85999966  51.66999817
C    20.84000015   8.51000023  51.24000168
C    16.79000092   7.73000002  50.15999603
C    16.02000046   8.07999992  51.29000092
C    14.63000107   8.19999981  51.32999802
C    24.61000061   9.19000053  51.25999832
H    25.11719322   8.50421715  51.93864059
H    19.82999992   9.00000000  53.15999985
H    19.12999916   7.44999981  48.46000290
H    21.50000000   7.71000004  48.02000046
H    23.88999939   8.10000038  48.90999603
H    22.30999947   9.22999954  52.68000031
H    14.19999981   8.57999992  52.25000000
H    25.26000023   9.22999954  50.37000275
H    24.61000061  10.19000053  51.72999954
S    13.60000038   7.05999947  47.74000168
C    10.85000038   6.84999990  48.46000290
C    12.15000057   7.17999983  48.75999832
C    12.43999958   7.76999998  50.02999878
C    11.43000031   7.86999989  50.97999954
C    10.13000011   7.37999964  50.72000122
C     9.06999969   7.55999994  51.65000153
C     7.76000023   7.26999998  51.35000229
C     7.49000025   6.67000008  50.08999634
C     8.47000027   6.43000031  49.15999985
C     9.81000042   6.84000015  49.41999817
C    13.89000034   7.82000017  50.20999908
C    14.68000031   7.50000000  49.08000183
C    16.05999947   7.39000034  49.02000046
C     6.06999969   6.34999990  49.65999985
H     5.71418524   6.92642021  48.80604553
H    10.64000034   6.51000023  47.44999695
H    11.67000008   8.18000031  51.98999786
H     9.28999996   8.05999947  52.58999634
H     6.91999960   7.59000015  51.95000076
H     8.14999962   6.01999998  48.20999908
H    16.54000092   6.93000031  48.15999985
H     5.42000008   6.54999971  50.52000046
H     5.84999990   5.32999992  49.34999847
