96

S    16.84999847   8.25000000  59.05000305
C    19.57999992   8.10999966  58.41999817
C    18.27000046   7.97999954  58.02000046
C    17.92000008   7.42000008  56.75000000
C    18.93000031   7.14999962  55.84000015
C    20.27000046   7.48000050  56.12999725
C    21.30000114   7.49000025  55.13999939
C    22.57999802   7.88000011  55.43000031
C    22.86999893   8.25000000  56.77000046
C    21.93000031   8.38000011  57.75000000
C    20.61000061   7.94000053  57.44999695
C    16.48999977   7.44999981  56.49000168
C    15.80999947   7.88999987  57.65999603
C    14.42999935   8.03999996  57.71999741
C    24.31999969   8.60000038  57.02000046
H    24.81992149   7.79298306  57.55562973
H    19.81999969   8.52000046  59.40000153
H    18.65999985   6.58999968  54.94999695
H    20.89999962   7.21000004  54.16999817
H    23.38000107   7.86000013  54.68999863
H    22.10000038   8.82999992  58.73000336
H    13.93000031   8.45000076  58.59000397
H    24.93000031   8.82999992  56.12999725
H    24.25000000   9.52000046  57.61000061
S    13.20000076   6.78999996  54.18000031
C    10.52999973   6.61000013  55.05000305
C    11.82999992   6.98999977  55.28999710
C    12.23999977   7.57999992  56.52999878
C    11.30000019   7.71000004  57.52999878
C     9.94000053   7.42999983  57.29000092
C     8.85000038   7.67000008  58.18000031
C     7.53999996   7.36000013  57.90999985
C     7.23000002   6.72999954  56.68000031
C     8.19000053   6.51000023  55.72000122
C     9.53999996   6.81999969  56.04000092
C    13.68999958   7.76999998  56.56000137
C    14.37000084   7.26999998  55.41999817
C    15.73999977   7.09000015  55.35999680
C     5.84000015   6.21000004  56.38999939
H     5.56218672   6.48069000  55.37134933
H    10.22999954   6.15000010  54.10999680
H    11.61999893   8.00000000  58.52000427
H     9.13000011   8.00000000  59.18000031
H     6.78999996   7.40999985  58.69999695
H     7.86000013   5.97000027  54.84000397
H    16.20000076   6.58999968  54.51000214
H     5.17000008   6.58999968  57.16999817
H     5.84999990   5.10999966  56.45000076
S    17.64000130   8.56999969  52.81999969
C    20.31999969   8.75000000  52.11000061
C    19.02000046   8.56000042  51.70000076
C    18.57999992   8.25000000  50.37000275
C    19.59000015   8.01999950  49.45000076
C    20.95000076   8.13000011  49.81999969
C    21.90999985   8.22000027  48.76999664
C    23.22999954   8.38000011  49.09000015
C    23.67000198   8.56999969  50.41999817
C    22.70000076   8.76000023  51.38999939
C    21.32999802   8.46000004  51.16000366
C    17.13000107   8.22000027  50.24000168
C    16.48999977   8.30000019  51.50000000
C    15.10000038   8.30999947  51.58000183
C    25.12000084   8.84000015  50.76000214
H    25.48184586   8.30787468  51.63978195
H    20.55999947   9.04999924  53.13000107
H    19.26000023   7.92000008  48.41999817
H    21.54999924   8.06999969  47.75000000
H    23.97999954   8.57999992  48.33000183
H    22.96999931   9.30999947  52.28000259
H    14.57999992   8.40999985  52.52999878
H    25.69000053   8.53999996  49.86999893
H    25.22000122   9.92000008  50.93999863
S    13.93000031   7.44999981  47.88000107
C    11.18999958   7.50000000  48.62999725
C    12.51999950   7.67000008  48.94000244
C    12.92000008   7.96999979  50.27999878
C    11.97999954   8.05999947  51.29000092
C    10.60999966   7.83999968  51.02000427
C     9.55000019   7.90000010  51.97000122
C     8.23000050   7.67000008  51.69000244
C     7.88999987   7.32999992  50.34999847
C     8.86999989   7.16000032  49.40999985
C    10.24000072   7.48000050  49.66999817
C    14.35999966   8.14999962  50.40000153
C    15.05000019   7.82000017  49.20000076
C    16.43000031   7.88000011  49.08000183
C     6.46000004   6.91999960  50.05000305
H     5.99615526   7.52656555  49.27216721
H    10.78999996   7.11000013  47.69000244
H    12.30000019   8.32999992  52.29000092
H     9.89000034   8.27999973  52.93000031
H     7.48000050   7.63000011  52.48000336
H     8.85999966   6.75000000  48.40000153
H    16.90999985   7.69000006  48.11999893
H     6.03999996   7.03000021  51.05999756
H     6.61000013   5.84000015  49.95999908
