96

S    17.00000000   8.93000031  58.63999939
C    19.72999954   8.80999947  57.91999817
C    18.40999985   8.50000000  57.65999603
C    18.07999992   7.92999983  56.38999939
C    19.04000092   7.68000031  55.43000031
C    20.40999985   7.96999979  55.68999863
C    21.44000053   7.85000038  54.71000290
C    22.76000023   8.10999966  55.01999664
C    23.05999947   8.67000008  56.27999878
C    22.07999992   8.93999958  57.21000290
C    20.72999954   8.59000015  56.93999863
C    16.62999916   7.82999992  56.30000305
C    15.88999939   8.27000046  57.42000198
C    14.50000000   8.32999992  57.45999908
C    24.51000023   9.02999973  56.56999969
H    25.00860596   8.55988407  57.41763306
H    20.06999969   9.19999981  58.87000275
H    18.81000137   7.44999981  54.38999939
H    21.18000031   7.46999979  53.73000336
H    23.57000160   8.07999992  54.29000092
H    22.20999908   9.44000053  58.15999985
H    14.00000000   8.82999992  58.27999878
H    25.05000114   8.71000004  55.66999817
H    24.72999954  10.08999920  56.72000122
S    13.43999958   6.72999954  54.00000000
C    10.72999954   7.28999996  54.36999893
C    12.02999973   7.46000004  54.78000259
C    12.39999962   7.96000004  56.06999969
C    11.42000008   8.34999943  56.95999908
C    10.06999969   8.13000011  56.58000183
C     9.06000042   8.23000050  57.57999802
C     7.73999977   7.95000029  57.32999802
C     7.36999989   7.36999989  56.09000397
C     8.36999989   7.11999989  55.17000198
C     9.70000076   7.59999990  55.28999710
C    13.82999992   7.83999968  56.32999802
C    14.56999969   7.28999996  55.25000000
C    15.95000076   7.36000013  55.15999603
C     5.92999983   6.98000002  55.87999725
H     5.53106976   7.47866249  54.99665833
H    10.47999954   6.65999985  53.52000427
H    11.65999985   8.61999989  57.97999954
H     9.44999981   8.34999943  58.59000397
H     7.03000021   8.02999973  58.15000153
H     8.11999989   6.63999987  54.22999954
H    16.48999977   7.03999996  54.27000046
H     5.38000011   7.18999958  56.81000137
H     5.86000013   5.89999962  55.72000122
S    13.81999969   5.10999966  50.98999786
C    11.21000099   4.42999983  51.58000183
C    12.53999901   4.19999981  51.81999969
C    13.04999924   3.47000003  52.94000244
C    12.11999989   3.05999994  53.88000107
C    10.73999977   3.26999998  53.66000366
C     9.77999973   2.98000002  54.66999817
C     8.45000076   3.19000006  54.40000153
C     7.90000010   3.77999997  53.22999954
C     8.85000038   4.21000004  52.32999802
C    10.22999954   3.96000004  52.50000000
C    14.47000027   3.68000007  53.15000153
C    15.01999950   4.55000019  52.18000031
C    16.35000038   4.94999981  52.19999695
C     6.43000031   4.07000017  53.11000061
H     6.01887321   3.85025978  52.12471390
H    10.86999989   5.03999996  50.75000000
H    12.48000050   2.75999999  54.86999893
H     9.96999931   2.56999993  55.65000153
H     7.86000013   3.00000000  55.30000305
H     8.61999989   4.96000004  51.56999969
H    16.77999878   5.52999973  51.38999939
H     5.86000013   3.42000008  53.77999878
H     6.19000006   5.13000011  53.29000092
S    17.75000000   3.30000019  55.56000137
C    20.36999893   3.76999998  54.86000061
C    19.04999924   4.05000019  54.61000061
C    18.56999969   4.74000025  53.44999695
C    19.55000114   5.23000002  52.61000061
C    20.93000031   5.01999950  52.83000183
C    22.01000023   5.40000010  51.97000122
C    23.34000015   5.18000031  52.22999954
C    23.75000000   4.44999981  53.36999893
C    22.73999977   4.01999998  54.20000076
C    21.35999870   4.28999996  53.99000168
C    17.13000107   4.57999992  53.30999756
C    16.55999947   3.75999975  54.31999969
C    15.26999950   3.26999998  54.22999954
C    25.20999908   4.21999979  53.68999863
H    25.53150940   4.61295557  54.65452957
H    20.75000000   3.31999993  55.77999878
H    19.34000015   5.75000000  51.68000031
H    21.84000015   5.88000011  51.00999832
H    24.07999992   5.46000004  51.49000168
H    22.96999931   3.40000010  55.06999969
H    14.89999962   2.56000018  54.95999908
H    25.81000137   4.65000010  52.88000107
H    25.42000008   3.14000010  53.70999908
