96

S    16.95000076   8.76999950  58.60000229
C    19.65999985   8.67000008  58.00000000
C    18.38000107   8.30000019  57.64999771
C    18.02999878   7.60999966  56.45000076
C    19.04999924   7.42000008  55.52000046
C    20.38000107   7.75000000  55.86000061
C    21.42999840   7.36000013  54.98000336
C    22.72000122   7.71000004  55.31000137
C    23.05999947   8.30999947  56.55000305
C    22.06999969   8.67000008  57.43000031
C    20.72000122   8.38999939  57.09999847
C    16.59000015   7.62000036  56.23000336
C    15.88000107   8.27000046  57.28000259
C    14.48999977   8.34000015  57.31999969
C    24.51000023   8.67000008  56.79000092
H    25.00577927   8.11047745  57.58324814
H    19.75000000   9.18000031  58.95000076
H    18.92000008   6.83000040  54.61999893
H    21.21999931   6.86999989  54.02999878
H    23.50000000   7.46999979  54.59999847
H    22.18000031   9.25000000  58.34000015
H    13.96000004   8.73999977  58.18000031
H    25.10999870   8.50000000  55.89000320
H    24.67000008   9.70000076  57.14000320
S    13.42000008   6.71999979  53.85000229
C    10.69000053   6.65000010  54.50000000
C    11.97999954   6.98999977  54.86000061
C    12.28000069   7.68000031  56.06999969
C    11.19999981   7.96000004  56.90000153
C     9.85999966   7.65999985  56.58000183
C     8.82000065   8.02999973  57.48000336
C     7.57000017   7.53000021  57.18999863
C     7.30000019   6.80999994  56.00000000
C     8.27000046   6.53999996  55.06000137
C     9.61000061   6.90999985  55.38000107
C    13.71000099   7.83999968  56.26999664
C    14.44000053   7.26999998  55.20000076
C    15.81999969   7.13000011  55.17000198
C     5.92999983   6.25000000  55.70000076
H     5.45480728   6.72519255  54.84181595
H    10.59999943   6.14000034  53.54999924
H    11.39000034   8.28999996  57.90999985
H     9.10000038   8.52000046  58.40999985
H     6.81999969   7.68000031  57.95999908
H     8.14999962   5.95000029  54.15999985
H    16.27000046   6.69000053  54.29000092
H     5.27999973   6.39999962  56.56999969
H     5.95000029   5.14999962  55.63999939
S    13.68999958   4.98000002  50.83000183
C    10.98000050   4.36999989  51.53999710
C    12.34000015   4.32000017  51.77999878
C    12.81999969   3.65000010  52.95000076
C    11.90999985   3.25000000  53.92000198
C    10.52999973   3.24000001  53.64999771
C     9.56999969   2.79000020  54.59999847
C     8.25000000   2.80999994  54.20000076
C     7.72000027   3.28999996  52.97000122
C     8.64000034   3.84000015  52.11000061
C    10.03000069   3.76999998  52.41000366
C    14.25000000   3.81000018  53.13000107
C    14.88999939   4.44000006  52.02999878
C    16.21999931   4.81999969  52.04999924
C     6.25000000   3.50000000  52.72999573
H     5.90140438   3.32214522  51.71266937
H    10.62000084   4.85000038  50.63999939
H    12.17000008   3.14000010  54.97000122
H     9.92999935   2.49000001  55.58000183
H     7.50000000   2.53999996  54.93000031
H     8.28999996   4.39000034  51.24000168
H    16.63999939   5.45000029  51.26999664
H     5.78999996   2.76999998  53.40999985
H     6.00000000   4.51000023  53.08000183
S    17.51000023   3.38000011  55.59000015
C    20.17000008   3.71000004  54.98000336
C    18.86999893   3.82999992  54.54999924
C    18.46999931   4.42000008  53.29999924
C    19.47999954   4.92000008  52.50000000
C    20.82999992   4.65000010  52.81000137
C    21.90999985   5.23000002  52.08000183
C    23.22999954   5.01999950  52.37999725
C    23.54999924   4.28000021  53.54999924
C    22.56000137   3.81999993  54.38999939
C    21.18999863   3.97000027  54.02999878
C    17.02999878   4.42999983  53.13000107
C    16.43000031   3.78999996  54.23999786
C    15.07999992   3.45999980  54.20999908
C    25.03000069   4.07999992  53.80000305
H    25.35762978   4.62842226  54.68317413
H    20.51000214   3.24000001  55.90000153
H    19.29999924   5.55000019  51.63000107
H    21.68000031   5.86000013  51.22000122
H    23.97000122   5.55999994  51.79000092
H    22.86000061   3.33999991  55.31999969
H    14.75999928   2.86000013  55.05000305
H    25.52999878   4.55999994  52.95999908
H    25.17999840   2.99000001  53.89999771
