96

S    16.56999969   8.38999939  58.68999863
C    19.27000046   8.23000050  57.98999786
C    17.94999886   8.05000019  57.63999939
C    17.56999969   7.68000031  56.31000137
C    18.57999992   7.59000015  55.35999680
C    19.90999985   7.96999979  55.65000153
C    21.02000046   7.77999973  54.78000259
C    22.34000015   7.97999954  55.10000229
C    22.59000015   8.59000015  56.36000061
C    21.59000015   8.76999950  57.29000092
C    20.28000069   8.28999996  57.00000000
C    16.13000107   7.75000000  56.11999893
C    15.47000027   8.07999992  57.32999802
C    14.09999943   8.30000019  57.42000198
C    23.90999985   9.17000008  56.79000092
H    24.42034340   8.46119118  57.44210434
H    19.52000046   8.64000034  58.96999741
H    18.30999947   7.14999962  54.40000153
H    20.86000061   7.37999964  53.79000092
H    23.08000183   7.83999968  54.31000137
H    21.81999969   9.09000015  58.29999924
H    13.60000038   8.60999966  58.33000183
H    24.41999817   9.32999992  55.83000183
H    23.77000046  10.18000031  57.18999863
S    12.79999924   7.40999985  53.81000137
C    10.14000034   7.46000004  54.55999756
C    11.43000031   7.82999992  54.86000061
C    11.85999966   8.17000008  56.18000031
C    10.93000031   8.28999996  57.19999695
C     9.56999969   8.02999973  56.88999939
C     8.53999996   8.15999985  57.87000275
C     7.25000000   7.82999992  57.54000092
C     6.89000034   7.40999985  56.23000336
C     7.82999992   7.26000023  55.24000168
C     9.17000008   7.55999994  55.59000015
C    13.30999947   8.18000031  56.26999664
C    13.97999954   7.85000038  55.06000137
C    15.34999943   7.63000011  54.97000122
C     5.42999983   7.11000013  55.96000290
H     5.02470016   7.68595219  55.12807083
H    10.01000023   7.14999962  53.52000427
H    11.13999939   8.43999958  58.25000000
H     8.71000004   8.55000019  58.87000275
H     6.57999992   7.83999968  58.40000153
H     7.60999966   6.93000031  54.22999954
H    15.80000019   7.30000019  54.03999710
H     4.79999971   7.21000004  56.84999847
H     5.36000013   6.06999969  55.63000107
S    17.35999870   9.26000023  52.76000214
C    20.10999870   9.40999985  52.09000015
C    18.81999969   9.04999924  51.77000046
C    18.47999954   8.47999954  50.50000000
C    19.48999977   8.38000011  49.55999756
C    20.81999969   8.73999977  49.85000229
C    21.90000153   8.61999989  48.93000031
C    23.16999817   9.03999996  49.23999786
C    23.52000046   9.53999996  50.52000046
C    22.44999886   9.85000038  51.32999802
C    21.12999916   9.38000011  51.11000061
C    17.05999947   8.27000046  50.28999710
C    16.32999992   8.76000023  51.39999771
C    14.94999981   8.92000008  51.39999771
C    24.94999886   9.80000019  50.93999863
H    25.29163933   9.19501305  51.77986145
H    20.29000092   9.81999969  53.08000183
H    19.27999878   7.86000013  48.61999893
H    21.70999908   8.39999962  47.88000107
H    23.88999939   8.97000027  48.43000031
H    22.65000153  10.26000023  52.30999756
H    14.55000019   9.22000027  52.36000061
H    25.52999878   9.64999962  50.01999664
H    24.93000031  10.86999989  51.18999863
S    13.80000019   7.69000006  47.84999847
C    11.11999989   7.44000006  48.52000427
C    12.38000011   7.85000038  48.89999771
C    12.74000072   8.40999985  50.15999603
C    11.67000008   8.60999966  51.02000427
C    10.31999969   8.38000011  50.63999939
C     9.23999977   8.60999966  51.52999878
C     7.96000004   8.43000031  51.04999924
C     7.63999987   7.76000023  49.82999802
C     8.69000053   7.46000004  49.00000000
C    10.03000069   7.76999998  49.36000061
C    14.18000031   8.56000042  50.27999878
C    14.91000080   8.06999969  49.18000031
C    16.29999924   7.92000008  49.16999817
C     6.21999979   7.42999983  49.43000031
H     5.89936399   8.06414700  48.60346985
H    11.00000000   6.94999981  47.56000137
H    11.79999924   9.06000042  52.00000000
H     9.44999981   8.93999958  52.54000092
H     7.11999989   8.64000034  51.70000076
H     8.59000015   6.90000010  48.06999969
H    16.77999878   7.64999962  48.23999786
H     5.63000011   7.51999950  50.34999847
H     6.11000013   6.37000036  49.15000153
