96

S    16.62999916   8.75000000  59.06999969
C    19.31999969   9.04999924  58.33000183
C    18.04999924   8.61999989  58.02000046
C    17.73999977   8.09000015  56.72000122
C    18.77000046   7.99000025  55.80999756
C    20.09000015   8.38999939  56.11999893
C    21.21999931   8.10000038  55.30000305
C    22.50999832   8.36000061  55.68000031
C    22.77000046   9.02999973  56.90000153
C    21.73000145   9.30000019  57.76000214
C    20.39999962   8.93999958  57.41000366
C    16.31000137   7.95000029  56.51000214
C    15.60999966   8.34000015  57.68000031
C    14.22000027   8.39999962  57.71999741
C    24.17000008   9.50000000  57.22999954
H    24.75204849   8.90375614  57.93271637
H    19.50000000   9.32999992  59.36000061
H    18.52000046   7.37999964  54.93999863
H    21.00000000   7.60999966  54.34999847
H    23.31000137   8.15999985  54.97000122
H    21.81999969   9.78999996  58.72000122
H    13.69999981   8.65999985  58.63999939
H    24.77000046   9.64999962  56.31999969
H    24.04999924  10.53999996  57.56000137
S    13.07999992   7.57999992  54.00000000
C    10.38000011   7.30000019  54.68000031
C    11.67000008   7.57000017  55.06999969
C    12.02999973   7.94000053  56.39999771
C    11.05999947   7.92999983  57.37999725
C     9.72000027   7.68000031  57.00000000
C     8.64999962   7.90999985  57.90000153
C     7.34000015   7.92000008  57.50000000
C     7.00999975   7.40999985  56.22000122
C     7.97999954   7.16000032  55.27999878
C     9.34000015   7.36000013  55.63999939
C    13.47000027   8.14000034  56.56999969
C    14.18000031   7.81000042  55.38000107
C    15.54999924   7.60999966  55.38000107
C     5.55000019   7.09999990  55.97000122
H     5.10965347   7.47642517  55.04669189
H    10.25000000   6.93000031  53.66000366
H    11.31000042   8.17000008  58.41999817
H     8.97999954   8.19000053  58.89999771
H     6.50000000   7.97999954  58.18999863
H     7.73000002   6.90999985  54.25000000
H    15.98999977   7.31999969  54.43000031
H     5.00999975   7.53000021  56.83000183
H     5.38999987   6.01999998  56.02000427
S    17.13000107   8.90999985  52.63999939
C    19.78999901   9.18000031  51.95999908
C    18.53000069   8.78999996  51.56000137
C    18.18000031   8.48999977  50.20000076
C    19.26000023   8.30999947  49.34999847
C    20.55000114   8.78999996  49.66999817
C    21.63000107   8.60000038  48.76999664
C    22.95999908   8.82000065  49.06000137
C    23.19000053   9.30000019  50.38000107
C    22.20000076   9.51000023  51.31000137
C    20.84000015   9.22999954  51.00999832
C    16.73999977   8.28999996  50.12000275
C    16.02000046   8.64000034  51.27999878
C    14.63999939   8.80000019  51.30000305
C    24.61999893   9.64999962  50.73999786
H    25.03966331   8.94581795  51.45840836
H    20.10000038   9.44999981  52.97000122
H    19.10000038   7.85000038  48.37999725
H    21.47000122   7.96999979  47.90000153
H    23.71000099   8.52000046  48.34000015
H    22.46000099   9.86999989  52.29999924
H    14.21000004   9.19999981  52.21000290
H    25.15000153   9.52999973  49.78000259
H    24.69000053  10.70000076  51.03000259
S    13.55000019   7.85000038  47.60000229
C    10.86999989   7.69999981  48.27999878
C    12.13999939   8.05999947  48.66000366
C    12.48000050   8.51000023  49.98000336
C    11.51000023   8.67000008  50.94999695
C    10.18000031   8.40999985  50.56000137
C     9.15000057   8.47999954  51.53999710
C     7.88999987   8.10000038  51.14999771
C     7.55000019   7.75000000  49.81999969
C     8.52000046   7.57999992  48.87000275
C     9.85000038   7.92999983  49.23999786
C    13.93000031   8.48999977  50.13000107
C    14.63999939   8.06999969  48.97999573
C    16.02000046   7.90999985  48.97999573
C     6.10000038   7.44000006  49.48999786
H     5.62980366   8.10255051  48.76333237
H    10.60999966   7.35000038  47.29000092
H    11.82000065   9.02000046  51.93999863
H     9.48999977   8.71999931  52.55000305
H     7.05999947   7.99000025  51.83000183
H     8.38999939   7.26999998  47.83000183
H    16.51000023   7.55999994  48.06999969
H     5.60999966   7.57000017  50.47000122
H     5.98999977   6.38999987  49.20999908
