96

S    16.95000076   8.76000023  58.87000275
C    19.59000015   8.90999985  58.09999847
C    18.35000038   8.36000061  57.84999847
C    18.04000092   7.79999971  56.56999969
C    19.04000092   7.78999996  55.61000061
C    20.32999992   8.30999947  55.86999893
C    21.45000076   8.05000019  55.02999878
C    22.73999977   8.39999962  55.34000015
C    23.08000183   8.85999966  56.63999939
C    22.03000069   9.03999996  57.51999664
C    20.68000031   8.73999977  57.19999695
C    16.59000015   7.73999977  56.44000244
C    15.88999939   8.34000015  57.50999832
C    14.51000023   8.52000046  57.50000000
C    24.54999924   9.04999924  56.93000031
H    24.85493660   8.48267555  57.80935287
H    19.81999969   9.34000015  59.06999969
H    18.85000038   7.18999958  54.72000122
H    21.22999954   7.72000027  54.02000046
H    23.54999924   8.30999947  54.61000061
H    22.09000015   9.36999989  58.54999924
H    14.01000023   8.78000069  58.43000031
H    25.20999908   8.85999966  56.06999969
H    24.65999985  10.10000038  57.22000122
S    13.36999989   7.14999962  53.95000076
C    10.65000057   7.00999975  54.62999725
C    11.92999935   7.40999985  54.94999695
C    12.35999966   7.83999968  56.24000168
C    11.35000038   8.07999992  57.15999985
C    10.00000000   7.82000017  56.83000183
C     8.97000027   8.09000015  57.77999878
C     7.64999962   7.85000038  57.48000336
C     7.28999996   7.17999983  56.26999664
C     8.28999996   6.76000023  55.41999817
C     9.65999985   7.07000017  55.65000153
C    13.78999901   8.05999947  56.38999939
C    14.47999954   7.48000050  55.28999710
C    15.86999989   7.34000015  55.31000137
C     5.84999990   6.84000015  55.97999954
H     5.51562738   7.32377291  55.06225204
H    10.34000015   6.74000025  53.62999725
H    11.52999973   8.52000046  58.13999939
H     9.19000053   8.52999973  58.75000000
H     6.85999966   8.05000019  58.18999863
H     8.03999996   6.30999994  54.47000122
H    16.42000008   7.21000004  54.38999939
H     5.25000000   7.20000029  56.83000183
H     5.73000002   5.75000000  55.96000290
S    13.67000008   5.18000031  50.96000290
C    11.06999969   4.78999996  51.73999786
C    12.38999939   4.46000004  51.95000076
C    12.81999969   3.70000005  53.08000183
C    11.85999966   3.28000021  53.99000168
C    10.50000000   3.60000014  53.80000305
C     9.50000000   3.05999994  54.65999985
C     8.18000031   3.17000008  54.31000137
C     7.76999998   3.79999995  53.09999847
C     8.69000053   4.35999966  52.25000000
C    10.06999969   4.26999998  52.58999634
C    14.27000046   3.67000008  53.11999893
C    14.84000015   4.46999979  52.09000015
C    16.17000008   4.86999989  52.14000320
C     6.30000019   4.07000017  52.84999847
H     5.93842983   3.82895350  51.85036850
H    10.72999954   5.38000011  50.87999725
H    12.20000076   2.61999989  54.78000259
H     9.68999958   2.57999992  55.61999893
H     7.42999983   2.89000010  55.05000305
H     8.42000008   5.17000008  51.56999969
H    16.61000061   5.45000029  51.33999634
H     5.72000027   3.51000023  53.59000397
H     6.02999973   5.10999966  53.04999924
S    17.38999939   3.28999996  55.68999863
C    20.06000137   3.89999986  55.17000198
C    18.73999977   4.02999973  54.79999924
C    18.27000046   4.67000008  53.61000061
C    19.25000000   5.23999977  52.81999969
C    20.62000084   5.10999966  53.11999893
C    21.57999992   5.78999996  52.31999969
C    22.88999939   5.82000017  52.75000000
C    23.35000038   5.00000000  53.81000137
C    22.44999886   4.30000019  54.58000183
C    21.05999947   4.41000032  54.31000137
C    16.86000061   4.50000000  53.29999924
C    16.31000137   3.70000005  54.33000183
C    14.98000050   3.31999993  54.27000046
C    24.80999947   4.59999990  53.75000000
H    25.33000946   4.87068987  54.66892242
H    20.32999992   3.37000012  56.07999802
H    18.92000008   5.75000000  51.90999985
H    21.21000099   6.34999990  51.46999741
H    23.64999962   6.25000000  52.09999847
H    22.79000092   3.65999985  55.38999939
H    14.42999935   3.00000000  55.15999603
H    25.30999947   5.12000036  52.91999817
H    24.80999947   3.53999996  53.47999954
