96

S    16.97000122   9.07999992  58.68000031
C    19.70000076   9.09000015  58.01000214
C    18.43000031   8.60000038  57.78999710
C    18.06999969   7.90999985  56.59000015
C    19.03000069   7.59999990  55.63999939
C    20.36999893   7.99000025  55.89000320
C    21.42000008   7.78999996  54.94999695
C    22.69000053   8.26000023  55.18000031
C    23.03999901   8.86999989  56.40999603
C    22.04999924   9.10000038  57.34000397
C    20.71000099   8.71000004  57.09000015
C    16.62999916   7.82999992  56.36000061
C    15.90000057   8.45000076  57.41000366
C    14.51000023   8.43999958  57.37999725
C    24.47999954   9.26000023  56.68000031
H    24.95071793   8.71796036  57.50019455
H    19.88999939   9.68999958  58.88999939
H    18.92000008   7.11000013  54.68000031
H    21.28000069   7.36000013  53.95999908
H    23.42000008   8.19000053  54.38000107
H    22.26000023   9.48000050  58.33000183
H    14.07999992   8.94999981  58.25000000
H    25.07999802   9.06999969  55.77999878
H    24.41999817  10.36000061  56.69000244
S    13.47000027   7.11000013  53.79000092
C    10.69000053   7.11000013  54.43999863
C    12.01000023   7.35000038  54.77000427
C    12.39999962   7.92000008  56.02000427
C    11.43000031   8.14000034  56.97999954
C    10.13000011   7.60999966  56.77999878
C     9.11000061   7.90000010  57.72999573
C     7.77999973   7.64999962  57.50000000
C     7.36000013   7.11000013  56.25999832
C     8.32999992   6.94000006  55.28999710
C     9.72999954   7.13999987  55.47999954
C    13.83999920   8.01000023  56.24000168
C    14.56999969   7.55999994  55.11000061
C    15.95999908   7.49000025  55.19000244
C     5.88999987   6.89000034  56.00000000
H     5.52613735   7.36088085  55.08677673
H    10.42000008   6.71999979  53.47000122
H    11.69000053   8.60000038  57.93000031
H     9.52999973   8.43000031  58.59000397
H     6.98999977   8.14999962  58.04999924
H     8.03999996   6.65999985  54.27999878
H    16.56999969   7.09000015  54.38000107
H     5.25000000   7.36000013  56.76000214
H     5.59000015   5.84000015  56.03000259
S    14.06999969   5.22000027  50.91999817
C    11.38000011   4.57999992  51.40999603
C    12.71000004   4.46999979  51.77000046
C    13.19000053   3.93000007  53.00000000
C    12.23000050   3.45000005  53.88000107
C    10.85999966   3.61000013  53.59000397
C     9.86999989   3.22000003  54.54000092
C     8.52000046   3.38000011  54.34999847
C     8.10999966   4.18000031  53.25000000
C     9.02000046   4.55000019  52.28000259
C    10.39999962   4.21000004  52.36999893
C    14.61999989   4.11000013  53.23999786
C    15.25000000   4.80999994  52.18000031
C    16.61999893   5.07000017  52.21000290
C     6.63000011   4.35999966  53.01000214
H     6.26679897   3.56238198  52.36193466
H    11.09000015   5.09999990  50.50000000
H    12.63000011   3.19000006  54.86000061
H    10.19000053   2.75000000  55.47000122
H     7.82999992   2.89000010  55.02999878
H     8.76000023   5.15999985  51.42000198
H    17.14999962   5.49000025  51.37000275
H     6.11999989   4.25000000  53.97999573
H     6.47000027   5.36000013  52.60000229
S    17.88999939   3.55999994  55.65000153
C    20.58000183   3.93000007  54.98000336
C    19.26000023   4.15000010  54.66999817
C    18.82999992   4.71000004  53.41999817
C    19.81999969   5.05000019  52.51999664
C    21.18000031   4.98000002  52.88000107
C    22.21999931   5.51999998  52.05999756
C    23.55999947   5.40999985  52.34000397
C    23.95000076   4.80999994  53.55999756
C    23.00000000   4.33999968  54.43000031
C    21.61000061   4.41000032  54.13000107
C    17.38000107   4.61000013  53.29000092
C    16.73999977   3.93000007  54.34999847
C    15.36999893   3.65999985  54.33000183
C    25.38000107   4.75000000  54.06000137
H    25.67173767   5.68213463  54.54385376
H    20.85000038   3.50000000  55.93999863
H    19.55000114   5.42999983  51.52999878
H    22.04000092   5.78999996  51.02000427
H    24.30999947   5.58000040  51.56999969
H    23.23999786   3.76999998  55.31999969
H    14.88000011   3.30000019  55.22999573
H    26.14000130   4.53000021  53.29999924
H    25.46999931   3.88000011  54.72999954
