96

S    17.04000092   8.80999947  59.06999969
C    19.77000046   9.04999924  58.29999924
C    18.46999931   8.71000004  58.02000046
C    18.12999916   8.36000061  56.66999817
C    19.17000008   8.19999981  55.76000214
C    20.55000114   8.32999992  56.04999924
C    21.61000061   8.17000008  55.11000061
C    22.89999962   8.30000019  55.56000137
C    23.15000153   8.84000015  56.84999847
C    22.15999985   9.06000042  57.77999878
C    20.81999969   8.78999996  57.37999725
C    16.69999886   8.28999996  56.44000244
C    16.00000000   8.55000019  57.64999771
C    14.60999966   8.67000008  57.69000244
C    24.54000092   9.35000038  57.18999863
H    25.02971077   8.64737225  57.86423874
H    19.93000031   9.61999989  59.22000122
H    18.96999931   8.10000038  54.69999695
H    21.42999840   7.79999971  54.09999847
H    23.68000031   8.14999962  54.82999802
H    22.27000046   9.39999962  58.80000305
H    14.18000031   8.85000038  58.67000198
H    25.17999840   9.53999996  56.31999969
H    24.38999939  10.34000015  57.64999771
S    13.45999908   7.76000023  54.00000000
C    10.77999973   7.44999981  54.65999985
C    12.02999973   7.86000013  55.06000137
C    12.39999962   8.30000019  56.37000275
C    11.39999962   8.30999947  57.31999969
C    10.03999901   8.15999985  56.95999908
C     8.94999981   8.15999985  57.88000107
C     7.63000011   8.03999996  57.50000000
C     7.39000034   7.57000017  56.18999863
C     8.40999985   7.46000004  55.27000046
C     9.77000046   7.67000008  55.63000107
C    13.82999992   8.47999954  56.55000305
C    14.52999973   8.19000053  55.34999847
C    15.92000008   8.10000038  55.30000305
C     5.95000029   7.28999996  55.81999969
H     5.55730534   7.88975191  54.99890900
H    10.60999966   6.98999977  53.68999863
H    11.76000023   8.40999985  58.34000015
H     9.18000031   8.48999977  58.88999939
H     6.89000034   8.01000023  58.29000092
H     8.14999962   7.07999992  54.29000092
H    16.43000031   7.88000011  54.36999893
H     5.21000004   7.35000038  56.63000107
H     5.97000027   6.23000050  55.52000046
S    17.82999992   9.13999939  52.50999832
C    20.46999931   9.23999977  51.81000137
C    19.19000053   8.94999981  51.38999939
C    18.86000061   8.43999958  50.08999634
C    19.88000107   8.31999969  49.15999985
C    21.18999863   8.63000011  49.56999969
C    22.26000023   8.51000023  48.63999939
C    23.57000160   8.75000000  48.96999741
C    23.87000084   9.26000023  50.26000214
C    22.86999893   9.55999947  51.14999771
C    21.52000046   9.19000053  50.86000061
C    17.40999985   8.36000061  50.00000000
C    16.72999954   8.76999950  51.18000031
C    15.34999943   8.98999977  51.18999863
C    25.32999992   9.46000004  50.61000061
H    25.64356422   8.93976784  51.51506042
H    20.62999916   9.76000023  52.75000000
H    19.70999908   8.00000000  48.13000107
H    21.97999954   8.15999985  47.63999939
H    24.34999847   8.52999973  48.25000000
H    23.05000114   9.92000008  52.15999985
H    14.85000038   9.02000046  52.15000153
H    25.93000031   9.11000061  49.75000000
H    25.40999985  10.54999924  50.70999908
S    14.14000034   7.81000042  47.57999802
C    11.47999954   7.90000010  48.22999954
C    12.75000000   8.23999977  48.61000061
C    13.12000084   8.76000023  49.88999939
C    12.11999989   8.89999962  50.84000015
C    10.80000019   8.61999989  50.43000031
C     9.75000000   8.64000034  51.38999939
C     8.43999958   8.30999947  51.11000061
C     8.10999966   7.88999987  49.79999924
C     9.04999924   7.90000010  48.80000305
C    10.39999962   8.23999977  49.09000015
C    14.55999947   8.73000050  50.06000137
C    15.24000072   8.22000027  48.92000198
C    16.61999893   8.09000015  48.88000107
C     6.70000029   7.42999983  49.51000214
H     6.23569727   8.04430866  48.73854446
H    11.28000069   7.37999964  47.29000092
H    12.30000019   9.04999924  51.90000153
H    10.01999950   8.71000004  52.43999863
H     7.68000031   8.30999947  51.88999939
H     8.78999996   7.46000004  47.84000015
H    16.95000076   7.82000017  47.88000107
H     6.11000013   7.53999996  50.43000031
H     6.80000019   6.34000015  49.43000031
