96

S    16.90999985   8.42000008  58.75000000
C    19.64999962   8.65999985  58.08000183
C    18.38000107   8.21000004  57.78999710
C    18.02999878   7.64999962  56.52000046
C    18.96999931   7.62000036  55.50000000
C    20.30999947   7.97999954  55.77000046
C    21.35000038   7.73000002  54.82999802
C    22.69000053   7.96000004  55.08999634
C    22.98000145   8.53999996  56.35000229
C    22.01999855   8.76000023  57.29999924
C    20.63999939   8.47999954  57.08000183
C    16.59000015   7.50000000  56.35000229
C    15.80999947   7.90000010  57.45999908
C    14.42999935   8.07999992  57.49000168
C    24.43000031   8.82000065  56.69000244
H    24.88747597   8.06230640  57.32617569
H    19.85000038   9.22999954  58.99000168
H    18.65999985   7.07999992  54.61999893
H    20.95999908   7.37999964  53.88000107
H    23.43000031   7.88000011  54.29999924
H    22.29999924   9.15999985  58.27000046
H    13.86999989   8.60999966  58.25000000
H    24.97999954   9.10000038  55.77000046
H    24.41999817   9.68999958  57.36000061
S    13.48999977   6.84999990  53.77999878
C    10.77000046   6.67000008  54.40999985
C    12.05000019   6.98999977  54.79999924
C    12.38000011   7.46999979  56.11000061
C    11.31000042   7.67000008  56.95000076
C     9.94999981   7.46000004  56.60999680
C     8.97000027   7.50000000  57.63999939
C     7.71000004   7.03000021  57.36999893
C     7.39000034   6.56000042  56.06999969
C     8.34000015   6.51999998  55.07999802
C     9.70000076   6.84999990  55.33000183
C    13.81999969   7.60999966  56.31999969
C    14.53999996   7.31999969  55.13999939
C    15.93000031   7.20000029  55.14999771
C     5.93999958   6.15999985  55.86000061
H     5.48333883   6.83072090  55.13219833
H    10.60999966   6.09000015  53.50000000
H    11.54000092   7.92000008  57.98999786
H     9.26999950   7.92999983  58.59000397
H     6.98000002   6.98000002  58.16999817
H     8.05999947   6.25999975  54.06000137
H    16.42000008   6.93000031  54.22999954
H     5.42000008   6.07999992  56.83000183
H     5.78999996   5.17000008  55.43000031
S    17.61999893   8.65999985  52.62000275
C    20.27000046   8.93000031  51.72000122
C    18.96999931   8.56999969  51.45999908
C    18.57999992   8.07999992  50.17000198
C    19.52000046   7.99000025  49.15999985
C    20.89999962   8.10000038  49.45999908
C    21.93000031   7.92999983  48.47999954
C    23.23999786   8.21000004  48.81000137
C    23.61000061   8.64999962  50.10000229
C    22.60999870   9.01000023  50.97999954
C    21.25000000   8.64999962  50.73999786
C    17.13999939   7.90000010  50.10000229
C    16.48999977   8.27999973  51.30000305
C    15.10000038   8.38000011  51.31999969
C    25.00999832   9.04999924  50.52000046
H    25.57117081   8.25441551  51.01013565
H    20.55000114   9.48999977  52.61000061
H    19.25000000   7.94000053  48.11000061
H    21.57999992   7.77999973  47.47000122
H    24.00000000   8.27000046  48.04000092
H    22.81999969   9.47000027  51.93000031
H    14.70000076   8.69999981  52.28000259
H    25.58000183   9.39000034  49.65000153
H    25.15999985   9.92000008  51.17000198
S    13.82999992   7.31999969  47.70999908
C    11.13000011   7.49000025  48.48999786
C    12.46000099   7.73999977  48.75000000
C    12.86000061   8.22000027  50.04000092
C    11.87999916   8.28999996  51.02000427
C    10.52000046   7.97999954  50.77999878
C     9.55999947   8.05000019  51.81999969
C     8.23999977   7.77999973  51.55000305
C     7.82000017   7.30000019  50.27999878
C     8.75000000   7.17000008  49.27999878
C    10.11000061   7.53000021  49.47999954
C    14.30999947   8.19000053  50.18000031
C    14.96000099   7.71000004  49.02000046
C    16.35000038   7.55999994  49.00000000
C     6.38999987   6.86999989  50.01999664
H     5.95016527   7.50847006  49.25383759
H    10.92000008   7.11999989  47.49000168
H    12.28999996   8.51000023  52.00000000
H     9.82999992   8.51000023  52.77000046
H     7.62000036   7.86999989  52.43999863
H     8.52999973   6.75000000  48.29999924
H    16.80999947   7.30000019  48.04999924
H     5.75999975   6.97000027  50.90999985
H     6.32999992   5.82000017  49.72000122
