96

S    16.72000122   8.52000046  59.15999985
C    19.47999954   8.82999992  58.43999863
C    18.18000031   8.50000000  58.15000153
C    17.87999916   8.06999969  56.81999969
C    18.86999893   7.95000029  55.84999847
C    20.19000053   8.28999996  56.18999863
C    21.22999954   8.14999962  55.22999573
C    22.50000000   8.59000015  55.52000046
C    22.86999893   9.00000000  56.83000183
C    21.90000153   9.04999924  57.81000137
C    20.55000114   8.73000050  57.51999664
C    16.46000099   7.86999989  56.59999847
C    15.70000076   8.03999996  57.78999710
C    14.32000065   7.92999983  57.83000183
C    24.30000114   9.36999989  57.14000320
H    24.75293922   8.74720669  57.91141510
H    19.77000046   9.23999977  59.40999985
H    18.70000076   7.57000017  54.85000229
H    20.98999977   7.88000011  54.20000076
H    23.21000099   8.43999958  54.71000290
H    22.07999992   9.44999981  58.80000305
H    13.76000023   8.19000053  58.73000336
H    24.84999847   9.31999969  56.19999695
H    24.25000000  10.44000053  57.41000366
S    13.35000038   6.97000027  54.09000015
C    10.62999916   6.94999981  54.65000153
C    11.90000057   7.21000004  55.08999634
C    12.20999908   7.63999987  56.42000198
C    11.16000080   7.65999985  57.31999969
C     9.84000015   7.32999992  56.95000076
C     8.73999977   7.37999964  57.87000275
C     7.46000004   7.18999958  57.39999771
C     7.22000027   6.74000025  56.07999802
C     8.27000046   6.51000023  55.20999908
C     9.57999992   6.90000010  55.61000061
C    13.64999962   7.71000004  56.62000275
C    14.39000034   7.53000021  55.41999817
C    15.77999973   7.46000004  55.45000076
C     5.84000015   6.23000050  55.72999954
H     5.42145681   6.88264370  54.96385574
H    10.40999985   6.67000008  53.61999893
H    11.33999920   7.82999992  58.37999725
H     8.93999958   7.63000011  58.90999603
H     6.53999996   7.26999998  57.95999908
H     8.17000008   5.84000015  54.36000061
H    16.31000137   7.28999996  54.51000214
H     5.23999977   6.17000008  56.65000153
H     5.91000032   5.23999977  55.25000000
S    17.13000107   9.04999924  52.88000107
C    19.85000038   9.30999947  52.28000259
C    18.59000015   8.93999958  51.86999893
C    18.27000046   8.48999977  50.54999924
C    19.29999924   8.34999943  49.62999725
C    20.62000084   8.69999981  49.98000336
C    21.71999931   8.52999973  49.09999847
C    22.98999977   8.86999989  49.51000214
C    23.21000099   9.46000004  50.77999878
C    22.15999985   9.70000076  51.63999939
C    20.86999893   9.22000027  51.30000305
C    16.84000015   8.34000015  50.34000015
C    16.10000038   8.65999985  51.50000000
C    14.70999908   8.67999935  51.53999710
C    24.56999969  10.00000000  51.14999771
H    25.08984184   9.35909843  51.86211395
H    20.03000069   9.81000042  53.22999954
H    19.11999893   8.13000011  48.57999802
H    21.67000008   8.15999985  48.08000183
H    23.78999901   8.94999981  48.77999878
H    22.25000000  10.06999969  52.64999771
H    14.28999996   8.78000069  52.54000092
H    25.22999954  10.21000004  50.30000305
H    24.23000145  10.90999985  51.66999817
S    13.76000023   7.68000031  47.78999710
C    11.03999996   7.30999994  48.47000122
C    12.30999947   7.72000027  48.81000137
C    12.60000038   8.19999981  50.13000107
C    11.59000015   8.23999977  51.06999969
C    10.26000023   7.95000029  50.68000031
C     9.19999981   8.06999969  51.63000107
C     7.90000010   7.77999973  51.30000305
C     7.60999966   7.36999989  49.97000122
C     8.61999989   7.03999996  49.09999847
C     9.96000004   7.40000010  49.38999939
C    14.02999973   8.38000011  50.34999847
C    14.75999928   8.21000004  49.15000153
C    16.14999962   8.09000015  49.13999939
C     6.19999981   7.03999996  49.54000092
H     5.73084545   7.79349089  48.90735245
H    10.81999969   7.05999947  47.43999863
H    11.82999992   8.46000004  52.11000061
H     9.50000000   8.23999977  52.65999603
H     7.13999987   7.71000004  52.06999969
H     8.50000000   6.76000023  48.04999924
H    16.68000031   7.86000013  48.22000122
H     5.69000006   6.84999990  50.48999786
H     6.26999950   6.06999969  49.03999710
