96

S    17.00000000   8.31999969  58.90999603
C    19.76000023   8.47999954  58.23999786
C    18.45000076   8.26000023  57.88999939
C    18.04999924   7.82999992  56.58000183
C    19.05999947   7.48000050  55.70999908
C    20.43000031   7.59999990  56.04999924
C    21.52000046   7.53999996  55.13999939
C    22.82999992   7.78999996  55.45999908
C    23.16999817   8.32999992  56.72999954
C    22.13999939   8.50000000  57.62000275
C    20.79999924   8.07999992  57.36000061
C    16.61999893   7.71000004  56.33999634
C    15.93000031   8.09000015  57.51999664
C    14.55000019   8.26000023  57.47000122
C    24.56000137   8.82999992  57.04999924
H    25.05173683   8.21711063  57.80541992
H    19.97999954   9.10000038  59.09999847
H    18.82999992   7.17000008  54.68999863
H    21.25000000   7.40000010  54.09000015
H    23.54000092   7.63999987  54.65000153
H    22.34999847   8.97000027  58.57999802
H    14.01999950   8.80000019  58.26000214
H    25.25000000   9.04999924  56.22000122
H    24.47999954   9.85999966  57.39999771
S    13.48999977   6.98000002  53.83999634
C    10.77999973   7.04999971  54.40000153
C    12.05999947   7.28999996  54.84000397
C    12.39999962   7.69000006  56.17000198
C    11.33999920   7.86999989  57.04000092
C    10.01999950   7.64999962  56.60999680
C     8.94999981   7.82000017  57.54000092
C     7.63999987   7.75000000  57.15000153
C     7.25000000   7.40999985  55.83000183
C     8.28999996   7.13000011  54.97000122
C     9.67000008   7.28999996  55.25000000
C    13.83999920   7.76999998  56.37000275
C    14.55000019   7.30000019  55.22999573
C    15.93999958   7.23999977  55.21999741
C     5.84999990   6.96000004  55.48999786
H     5.30514860   7.56853580  54.76824951
H    10.54999924   6.52999973  53.47000122
H    11.51000023   8.13000011  58.08000183
H     9.19000053   8.11999989  58.55999756
H     6.84000015   7.82000017  57.88000107
H     8.09000015   6.63999987  54.02000046
H    16.45000076   6.98999977  54.29000092
H     5.38000011   6.80000019  56.45999908
H     6.00000000   5.93999958  55.12000275
S    17.71000099   8.88000011  52.80000305
C    20.38999939   8.89999962  51.98999786
C    19.07999992   8.59000015  51.72000122
C    18.68999863   8.17000008  50.40999985
C    19.63000107   8.00000000  49.40999985
C    20.96999931   8.40999985  49.65999985
C    21.98999786   8.28999996  48.68000031
C    23.29999924   8.60999966  48.94000244
C    23.68000031   9.03999996  50.24000168
C    22.73999977   9.15999985  51.23000336
C    21.38999939   8.78000069  50.98999786
C    17.25000000   8.03999996  50.31000137
C    16.59000015   8.45000076  51.49000168
C    15.21000004   8.67000008  51.55000305
C    25.06999969   9.53999996  50.58000183
H    25.56778908   8.79331398  51.19868469
H    20.65999985   9.34000015  52.95000076
H    19.31999969   7.69000006  48.41999817
H    21.73999977   8.06999969  47.63999939
H    24.03000069   8.71000004  48.13999939
H    23.02999878   9.52000046  52.21000290
H    14.72000027   9.01000023  52.45999908
H    25.72999954   9.77999973  49.73999786
H    24.93999863  10.47000027  51.13999939
S    14.01999950   7.44000006  47.88999939
C    11.36999989   7.67000008  48.53000259
C    12.67000008   7.81000042  48.97999573
C    13.02999973   8.30000019  50.27999878
C    12.00000000   8.53999996  51.17000198
C    10.65999985   8.30000019  50.79999924
C     9.59000015   8.39999962  51.72999954
C     8.28999996   8.19999981  51.35000229
C     8.01000023   7.57999992  50.10000229
C     9.01000023   7.34000015  49.19000244
C    10.34000015   7.76999998  49.50000000
C    14.47999954   8.39999962  50.38999939
C    15.10000038   7.88000011  49.22999954
C    16.47999954   7.73999977  49.16999817
C     6.67000008   6.93000031  49.84000397
H     6.04093266   7.53762197  49.18948746
H    11.09000015   7.26000023  47.56999969
H    12.20999908   8.88000011  52.18999863
H     9.94999981   8.55000019  52.75000000
H     7.46000004   8.45000076  52.01000214
H     8.80999947   6.76999998  48.29000092
H    16.98999977   7.48000050  48.25000000
H     6.14000034   6.80000019  50.79000092
H     6.83000040   5.95000029  49.36999893
