96

S    16.79999924   8.38000011  58.88000107
C    19.54000092   8.50000000  58.16999817
C    18.22999954   8.19999981  57.84999847
C    17.84000015   7.76999998  56.53999710
C    18.76000023   7.46000004  55.56000137
C    20.12000084   7.63000011  55.94999695
C    21.12999916   7.48000050  54.95999908
C    22.44999886   7.76999998  55.20000076
C    22.85000038   8.38999939  56.42000198
C    21.87999916   8.64000034  57.36999893
C    20.52999878   8.23000050  57.18999863
C    16.39000130   7.65999985  56.38000107
C    15.67999935   7.92999983  57.56999969
C    14.29999924   8.13000011  57.56999969
C    24.25000000   8.90999985  56.65000153
H    24.70673943   8.36762238  57.47784042
H    19.84000015   9.06000042  59.05000305
H    18.43000031   7.09999990  54.59999847
H    20.76999855   7.44000006  53.94000244
H    23.12999916   7.92999983  54.36999893
H    22.22999954   9.15999985  58.26000214
H    13.78000069   8.52999973  58.43999863
H    24.84999847   8.94999981  55.72999954
H    24.23000145   9.96000004  56.95000076
S    13.25000000   6.90999985  53.88999939
C    10.52999973   6.88000011  54.47999954
C    11.79999924   7.23999977  54.86000061
C    12.15999985   7.69999981  56.17000198
C    11.11999989   7.90000010  57.04999924
C     9.77999973   7.59999990  56.69000244
C     8.73000050   7.85000038  57.62000275
C     7.40999985   7.51999950  57.43000031
C     7.13000011   7.03999996  56.11999893
C     8.05999947   6.90999985  55.12000275
C     9.44999981   7.13000011  55.37000275
C    13.60000038   7.77999973  56.40999603
C    14.29999924   7.42999983  55.22999573
C    15.69000053   7.40000010  55.20000076
C     5.69000006   6.80000019  55.72000122
H     5.37164164   7.31644821  54.81444550
H    10.32999992   6.48999977  53.48999786
H    11.32999992   8.32999992  58.02000046
H     9.10000038   8.23000050  58.56999969
H     6.63999987   7.73999977  58.15999985
H     7.77999973   6.57000017  54.13000107
H    16.25000000   7.00000000  54.36000061
H     4.97000027   7.26999998  56.39999771
H     5.46000004   5.73000002  55.73999786
S    17.06999969   9.01000023  52.64999771
C    19.78000069   8.85999966  51.95999908
C    18.45999908   8.67000008  51.59999847
C    18.05999947   8.17000008  50.31999969
C    19.09000015   7.95000029  49.41999817
C    20.43999863   8.30999947  49.64000320
C    21.47000122   8.21000004  48.66000366
C    22.76000023   8.53999996  49.01000214
C    23.12000084   8.88000011  50.34000015
C    22.13999939   9.04999924  51.29000092
C    20.79000092   8.75000000  50.97000122
C    16.61000061   8.09000015  50.22999573
C    15.93000031   8.60000038  51.36000061
C    14.53999996   8.73999977  51.31999969
C    24.51999855   9.38000011  50.63000107
H    25.01176834   8.70292664  51.32845306
H    20.06000137   9.18000031  52.95999908
H    18.92000008   7.73000002  48.36999893
H    21.31000137   8.00000000  47.61000061
H    23.45999908   8.46000004  48.18999863
H    22.27999878   9.50000000  52.27000427
H    14.01000023   9.09000015  52.19999695
H    25.07999802   9.48999977  49.68999863
H    24.54999924  10.39999962  51.04000092
S    13.40999985   7.46999979  47.71999741
C    10.78999996   7.39000034  48.40999985
C    12.02000046   7.90000010  48.75000000
C    12.36999989   8.28999996  50.07999802
C    11.36999989   8.53999996  51.00000000
C    10.01999950   8.30999947  50.63000107
C     8.96000004   8.39999962  51.56999969
C     7.73000002   7.90999985  51.18000031
C     7.46999979   7.26000023  49.94999695
C     8.51000023   7.09000015  49.06000137
C     9.80000019   7.59000015  49.40999985
C    13.82999992   8.34999943  50.18000031
C    14.52000046   7.85000038  49.05000305
C    15.90999985   7.76000023  49.06000137
C     6.09000015   6.84000015  49.48999786
H     5.56213331   7.53193378  48.83373260
H    10.57999992   6.72999954  47.57999802
H    11.67000008   8.71000004  52.02999878
H     9.38000011   8.69999981  52.52999878
H     6.83000040   8.19999981  51.72000122
H     8.27999973   6.71000004  48.06999969
H    16.47999954   7.46000004  48.18999863
H     5.53999996   6.75000000  50.44000244
H     6.11000013   5.80999947  49.10999680
