96

S    17.14999962   8.88000011  58.54999924
C    19.85000038   9.01000023  57.84999847
C    18.55999947   8.67000008  57.50000000
C    18.23999977   8.17000008  56.19999695
C    19.26000023   7.99000025  55.28999710
C    20.59999847   8.28999996  55.63999939
C    21.68999863   8.00000000  54.77000427
C    22.98000145   8.32999992  55.11000061
C    23.31000137   8.93000031  56.35000229
C    22.27000046   9.17000008  57.22000122
C    20.92000008   8.82999992  56.93000031
C    16.79999924   7.96999979  56.05999756
C    16.09000015   8.32999992  57.22999954
C    14.70999908   8.48999977  57.25999832
C    24.70999908   9.27999973  56.79999924
H    25.04606438   8.77947521  57.70809174
H    20.03999901   9.43000031  58.82999802
H    19.00000000   7.49000025  54.36000061
H    21.38000107   7.50999975  53.85000229
H    23.82999802   8.01999950  54.51000214
H    22.39000130   9.57999992  58.22000122
H    14.30999947   8.98999977  58.13999939
H    25.42000008   8.90999985  56.04999924
H    24.90999985  10.36000061  56.88999939
S    13.63000011   7.32999992  53.59000397
C    10.93999958   7.30000019  54.29000092
C    12.23999977   7.57000017  54.65999985
C    12.51999950   8.05000019  55.97999954
C    11.49000072   8.30999947  56.86000061
C    10.11999989   8.17000008  56.51000214
C     9.04999924   8.19000053  57.43999863
C     7.76000023   7.77999973  57.16999817
C     7.53000021   7.23999977  55.87999725
C     8.57999992   7.09000015  55.00000000
C     9.92000008   7.51999950  55.24000168
C    13.96000004   8.03999996  56.16000366
C    14.65999985   7.62000036  55.00000000
C    16.04999924   7.59000015  54.93999863
C     6.15000010   6.75000000  55.52999878
H     5.67507696   7.38086748  54.77862930
H    10.65000057   6.78999996  53.36999893
H    11.82999992   8.46000004  57.88000107
H     9.19000053   8.38999939  58.50000000
H     7.03000021   7.92000008  57.95999908
H     8.32999992   6.61000013  54.06000137
H    16.60000038   7.39000034  54.02000046
H     5.49000025   6.67999983  56.40999603
H     6.24000025   5.73000002  55.14999771
S    17.64999962   9.02000046  52.43000031
C    20.29000092   9.36999989  51.68000031
C    19.02000046   9.01000023  51.30000305
C    18.64999962   8.56999969  49.98000336
C    19.69000053   8.42000008  49.08000183
C    21.01000023   8.76999950  49.45000076
C    22.10000038   8.60000038  48.54999924
C    23.40999985   8.71999931  48.95000076
C    23.75000000   9.22999954  50.22999573
C    22.72999954   9.47000027  51.11999893
C    21.37000084   9.19000053  50.77999878
C    17.20000076   8.46000004  49.91000366
C    16.48999977   8.69000053  51.11999893
C    15.11999989   8.89999962  51.14999771
C    25.15999985   9.56999969  50.66999817
H    25.50839424   9.04385471  51.55875778
H    20.52000046   9.71000004  52.68000031
H    19.50000000   8.10000038  48.06000137
H    21.78999901   8.27000046  47.56000137
H    24.13999939   8.38000011  48.22000122
H    22.93000031   9.76000023  52.15000153
H    14.59000015   9.26999950  52.02000046
H    25.81999969   9.51000023  49.79999924
H    25.29999924  10.62999916  50.93000031
S    13.89000034   7.76000023  47.56999969
C    11.23999977   7.57999992  48.36000061
C    12.50000000   8.05000019  48.63999939
C    12.88000011   8.60000038  49.89999771
C    11.87000084   8.76000023  50.84000015
C    10.52000046   8.50000000  50.51000214
C     9.50000000   8.67000008  51.49000168
C     8.18000031   8.47999954  51.12999725
C     7.82999992   7.90999985  49.87999725
C     8.82000065   7.59000015  48.97999573
C    10.18000031   7.90999985  49.23999786
C    14.32000065   8.69999981  50.00999832
C    15.01000023   8.26000023  48.85000229
C    16.39999962   8.19000053  48.80000305
C     6.38000011   7.62000036  49.58000183
H     5.92436314   8.13259125  48.73280334
H    11.07999992   6.94999981  47.48000336
H    12.06999969   9.02999973  51.88000107
H     9.85000038   8.96000004  52.48000336
H     7.42999983   8.56000042  51.90999985
H     8.57999992   7.16000032  48.01000214
H    16.79000092   8.01000023  47.81000137
H     5.82000017   7.90000010  50.48999786
H     6.25999975   6.56000042  49.34000015
