96

S    17.28000069   8.45000076  58.83999634
C    19.96000099   8.59000015  58.06000137
C    18.67000008   8.25000000  57.75000000
C    18.25000000   7.78999996  56.45999908
C    19.19999886   7.82000017  55.45000076
C    20.56999969   8.10000038  55.70000076
C    21.61000061   7.96999979  54.73999786
C    22.93000031   8.01999950  55.13999939
C    23.28000069   8.48999977  56.44000244
C    22.29000092   8.76999950  57.35000229
C    20.94000053   8.43000031  57.04999924
C    16.79999924   7.67000008  56.38000107
C    16.13000107   8.15999985  57.51999664
C    14.75000000   8.30999947  57.61000061
C    24.70000076   8.88000011  56.75000000
H    25.16856766   8.17004871  57.43155289
H    20.20999908   9.17000008  58.94000244
H    18.95000076   7.63999987  54.40999985
H    21.38000107   7.51999950  53.77999878
H    23.71999931   7.85000038  54.41999817
H    22.55000114   9.19999981  58.30999756
H    14.21000004   8.67000008  58.48999786
H    25.19000053   8.67999935  55.79000092
H    24.77000046   9.92000008  57.08000183
S    13.60000038   7.07999992  53.97999573
C    10.88000107   7.23000002  54.61999893
C    12.18999958   7.50000000  54.97000122
C    12.60000038   7.88999987  56.27999878
C    11.57999992   8.21000004  57.15999985
C    10.21999931   8.01999950  56.81999969
C     9.30000019   8.10000038  57.90999985
C     8.00000000   7.69000006  57.72999573
C     7.62000036   7.17999983  56.45999908
C     8.47999954   7.05999947  55.38999939
C     9.85000038   7.39000034  55.58000183
C    14.04000092   7.92000008  56.46999741
C    14.70999908   7.44000006  55.31000137
C    16.09000015   7.30000019  55.22999573
C     6.19000006   6.72999954  56.23000336
H     5.62969923   7.27611589  55.47111130
H    10.69000053   6.91999960  53.60000229
H    11.92999935   8.38999939  58.16999817
H     9.59999943   8.38000011  58.92000198
H     7.27999973   7.92999983  58.50000000
H     8.17000008   6.74000025  54.40000153
H    16.63999939   7.03999996  54.31999969
H     5.68000031   6.89000034  57.18999863
H     6.11000013   5.65999985  56.03000259
S    13.88000011   5.40000010  50.94999695
C    11.21000099   5.00000000  51.56999969
C    12.53000069   4.69000006  51.84000015
C    13.00000000   3.94000006  52.95999908
C    12.05000019   3.38000011  53.79000092
C    10.67000008   3.61000013  53.54999924
C     9.61000061   3.17999983  54.40000153
C     8.28999996   3.49000001  54.18000031
C     7.92000008   4.30999994  53.08000183
C     8.89000034   4.77999973  52.22000122
C    10.26000023   4.46000004  52.47000122
C    14.45000076   4.05999994  53.11000061
C    15.10000038   4.77999973  52.08000183
C    16.45000076   5.09999990  52.04999924
C     6.47000027   4.65000010  52.80000305
H     5.95750809   4.14462566  51.98143768
H    10.84000015   5.59000015  50.73999786
H    12.30999947   3.07000017  54.79999924
H     9.77999973   2.61999989  55.31000137
H     7.55000019   3.22000003  54.93000031
H     8.63000011   5.36999989  51.35000229
H    16.90000153   5.65000010  51.23000336
H     5.84999990   4.48999977  53.68999863
H     6.35999966   5.73000002  52.74000168
S    17.73999977   3.60000014  55.47000122
C    20.42000008   3.98999977  54.91000366
C    19.11999893   4.26999998  54.58000183
C    18.68999863   4.92000008  53.36999893
C    19.67000008   5.36999989  52.50999832
C    21.04000092   5.22000027  52.84000015
C    22.10000038   5.58000040  51.95999908
C    23.42000008   5.32000017  52.22999954
C    23.75999832   4.63999987  53.43000031
C    22.79000092   4.32000017  54.34999847
C    21.40999985   4.51999998  54.03999710
C    17.26000023   4.73000002  53.13000107
C    16.61000061   3.98000002  54.15000153
C    15.27999973   3.60000014  54.13999939
C    25.20999908   4.26000023  53.64999771
H    25.72986412   4.77986431  54.45472336
H    20.59000015   3.48000002  55.84999847
H    19.43000031   5.78999996  51.53999710
H    21.83000183   6.23000050  51.11999893
H    24.26000214   5.65999985  51.63999939
H    23.11000061   3.98000002  55.33000183
H    14.75999928   3.05999994  54.93000031
H    25.73999786   4.33999968  52.69000244
H    25.30999947   3.17000008  53.75999832
