96

S    16.70999908   8.85999966  58.81000137
C    19.44000053   8.90999985  58.18000031
C    18.15999985   8.55000019  57.84000015
C    17.78000069   8.10999966  56.52999878
C    18.82999992   7.78999996  55.68000031
C    20.15999985   8.14000034  56.00000000
C    21.21000099   7.92999983  55.06000137
C    22.53000069   8.14999962  55.37000275
C    22.86000061   8.67000008  56.65000153
C    21.87999916   8.93999958  57.56999969
C    20.52000046   8.63000011  57.29999924
C    16.34000015   8.09000015  56.32999802
C    15.60999966   8.47999954  57.48000336
C    14.22000027   8.50000000  57.51999664
C    24.27000046   9.15999985  56.86000061
H    24.71808815   8.51276207  57.61392593
H    19.64999962   9.31999969  59.16999817
H    18.53999901   7.49000025  54.68000031
H    20.90999985   7.51999950  54.09000015
H    23.28000069   8.06999969  54.58000183
H    22.14999962   9.46000004  58.48999786
H    13.68000031   8.64000034  58.44999695
H    24.71999931   9.13999939  55.86000061
H    24.15999985  10.18000031  57.25000000
S    13.23999977   7.17000008  53.85000229
C    10.47000027   7.13999987  54.54000092
C    11.78999996   7.42999983  54.84000397
C    12.10999966   7.88999987  56.14999771
C    11.07999992   8.10000038  57.04999924
C     9.72000027   7.81000042  56.77000046
C     8.67999935   8.10999966  57.70000076
C     7.36999989   7.95000029  57.29999924
C     7.03000021   7.36999989  56.04999924
C     8.03999996   7.09999990  55.15999603
C     9.40999985   7.27999973  55.47000122
C    13.52000046   8.17000008  56.35000229
C    14.22999954   7.73999977  55.20000076
C    15.62000084   7.73000002  55.18000031
C     5.65999985   6.84999990  55.66999817
H     5.22669077   7.36144733  54.81048203
H    10.22999954   6.89000034  53.50999832
H    11.31999969   8.46000004  58.04999924
H     9.02000046   8.57999992  58.61999893
H     6.53999996   8.23000050  57.93000031
H     7.82999992   6.70000029  54.16999817
H    16.20000076   7.40000010  54.31999969
H     4.99000025   6.98000002  56.52000046
H     5.75000000   5.77000046  55.52000046
S    17.31999969   9.02999973  52.50000000
C    19.96999931   9.15000057  51.86000061
C    18.72999954   8.67999935  51.47999573
C    18.32999992   8.31999969  50.15999603
C    19.37999916   8.15999985  49.27000046
C    20.71000099   8.50000000  49.59999847
C    21.77999878   8.31999969  48.67000198
C    23.02000046   8.85000038  48.93000031
C    23.28000069   9.42000008  50.20000076
C    22.29999924   9.59000015  51.14999771
C    20.98999977   9.10000038  50.87999725
C    16.87999916   8.18000031  50.04000092
C    16.18000031   8.53999996  51.22000122
C    14.80000019   8.63000011  51.36000061
C    24.69000053   9.85999966  50.54999924
H    25.11730576   9.12646008  51.23368835
H    20.06000137   9.59000015  52.84999847
H    19.20999908   7.63999987  48.33000183
H    21.61000061   7.86999989  47.70000076
H    23.85000038   8.84000015  48.22999954
H    22.63999939   9.94999981  52.11999893
H    14.30999947   9.02000046  52.23999786
H    25.36999893   9.89999962  49.68999863
H    24.61999893  10.92000008  50.84000015
S    13.56999969   7.67000008  47.68000031
C    10.90000057   7.51999950  48.41999817
C    12.18999958   7.88000011  48.76999664
C    12.57999992   8.27999973  50.08999634
C    11.56999969   8.39999962  51.03000259
C    10.21000004   8.19000053  50.70000076
C     9.15999985   8.30000019  51.65000153
C     7.86999989   7.96999979  51.31000137
C     7.51999950   7.67000008  49.95999908
C     8.52000046   7.62000036  49.02000046
C     9.88000011   7.90000010  49.33000183
C    14.01999950   8.34999943  50.22999573
C    14.68000031   7.97999954  49.02999878
C    16.05999947   7.81000042  48.96999741
C     6.09000015   7.36000013  49.58000183
H     5.62968302   8.01860809  48.84349442
H    10.77000046   6.90000010  47.54000092
H    11.90999985   8.51000023  52.05999756
H     9.30999947   8.60000038  52.69000244
H     7.05999947   8.05999947  52.02000046
H     8.32999992   7.34000015  47.98999786
H    16.48999977   7.42999983  48.04999924
H     5.60999966   7.20000029  50.56000137
H     6.19000006   6.32999992  49.22999954
