96

S    17.21999931   8.05000019  58.93000031
C    19.82999992   8.46000004  58.09000015
C    18.60999870   7.88999987  57.83000183
C    18.30000114   7.36000013  56.52999878
C    19.29000092   7.32999992  55.56000137
C    20.61000061   7.71000004  55.87999725
C    21.71999931   7.44999981  55.01999664
C    23.02999878   7.68000031  55.37000275
C    23.26000023   8.26000023  56.65000153
C    22.23999977   8.52999973  57.52999878
C    20.88999939   8.30000019  57.15999985
C    16.86000061   7.25000000  56.38999939
C    16.15999985   7.64999962  57.55000305
C    14.78999996   7.79999971  57.67000198
C    24.69000053   8.56999969  57.04999924
H    25.06001472   8.14305973  57.98215485
H    20.10999870   8.92000008  59.03999710
H    19.06999969   6.78999996  54.64000320
H    21.47000122   7.09999990  54.02000046
H    23.81999969   7.42000008  54.68000031
H    22.49000168   9.00000000  58.47999954
H    14.35999966   8.18000031  58.59000397
H    25.40999985   8.23999977  56.30000305
H    24.90999985   9.63999939  57.06999969
S    13.55000019   6.81999969  54.02000046
C    10.82999992   6.90000010  54.71000290
C    12.13999939   7.16000032  55.04000092
C    12.56999969   7.71000004  56.29000092
C    11.63000011   7.94000053  57.27000427
C    10.24000072   7.86000013  56.98999786
C     9.30999947   7.79999971  58.06999969
C     7.99000025   7.46000004  57.88000107
C     7.59000015   7.02000046  56.59000015
C     8.52999973   6.91999960  55.59000015
C     9.89999962   7.30000019  55.70999908
C    14.01000023   7.64999962  56.51000214
C    14.67000008   7.26999998  55.31999969
C    16.02000046   6.93000031  55.31000137
C     6.21000004   6.42000008  56.45999908
H     5.66800594   6.92633677  55.66127014
H    10.53999996   6.43000031  53.77999878
H    12.00000000   7.94000053  58.29000092
H     9.68999958   7.88999987  59.08000183
H     7.30000019   7.53999996  58.72000122
H     8.30000019   6.34000015  54.69999695
H    16.43000031   6.48999977  54.40999985
H     5.69999981   6.61000013  57.41000366
H     6.28000021   5.35000038  56.25999832
S    17.10000038   8.50000000  52.71999741
C    19.85999870   8.36000061  52.18999863
C    18.55999947   8.14999962  51.77000046
C    18.19000053   7.68000031  50.47000122
C    19.23999977   7.39000034  49.61999893
C    20.58000183   7.67000008  49.94999695
C    21.61000061   7.59000015  48.96999741
C    22.89999962   7.90999985  49.29000092
C    23.22999954   8.52000046  50.52999878
C    22.22999954   8.69999981  51.45999908
C    20.88999939   8.27999973  51.22000122
C    16.76000023   7.76999998  50.19000244
C    16.03999901   8.21000004  51.32999802
C    14.67000008   8.43000031  51.26999664
C    24.63000107   8.97999954  50.84999847
H    25.16231728   8.39800072  51.60234070
H    20.15999985   8.94999981  53.04999924
H    18.84000015   7.23000002  48.61999893
H    21.45000076   7.07999992  48.02000046
H    23.68999863   7.79999971  48.54999924
H    22.56000137   9.03999996  52.43999863
H    14.17000008   8.93000031  52.09000015
H    25.20999908   8.94999981  49.92000198
H    24.53000069  10.01999950  51.18999863
S    13.60000038   7.18999958  47.69000244
C    10.86999989   7.00000000  48.43000031
C    12.17000008   7.31999969  48.73000336
C    12.46999931   7.95000029  49.99000168
C    11.47999954   8.15999985  50.93000031
C    10.14000034   7.82999992  50.63999939
C     9.11000061   8.01999950  51.59999847
C     7.77999973   7.90000010  51.27999878
C     7.46999979   7.30000019  50.02999878
C     8.45000076   7.02000046  49.09999847
C     9.81999969   7.32999992  49.33000183
C    13.92000008   8.05000019  50.14999771
C    14.68000031   7.69000006  49.01000214
C    16.06999969   7.59000015  48.99000168
C     6.05000019   6.85999966  49.77000427
H     5.55139446   7.33011389  48.92237091
H    10.52000046   6.47000027  47.55000305
H    11.79999924   8.55000019  51.88999939
H     9.51000023   8.39999962  52.54000092
H     7.00000000   7.92000008  52.04000092
H     8.13000011   6.47000027  48.22999954
H    16.57999992   7.34000015  48.06999969
H     5.51000023   6.98999977  50.72000122
H     6.01999998   5.77000046  49.66999817
