96

S    17.13000107   8.60000038  58.72000122
C    19.82999992   8.36999989  58.18000031
C    18.53999901   8.05999947  57.78999710
C    18.15000153   7.59000015  56.50000000
C    19.19999886   7.35000038  55.63000107
C    20.55999947   7.57000017  55.97000122
C    21.61000061   7.46000004  55.02999878
C    22.88999939   7.79999971  55.41999817
C    23.21000099   8.38000011  56.68000031
C    22.20000076   8.52000046  57.60000229
C    20.86999893   8.14999962  57.25000000
C    16.70999908   7.49000025  56.37000275
C    16.01000023   8.13000011  57.42000198
C    14.61999989   8.11999989  57.45999908
C    24.63000107   8.73999977  57.06999969
H    25.16339302   8.07859421  57.75273895
H    19.96000099   8.98999977  59.06000137
H    19.00000000   7.04999971  54.59999847
H    21.35999870   7.17999983  54.01000214
H    23.62999916   7.59999990  54.65999985
H    22.40999985   9.10000038  58.50000000
H    14.25000000   8.52999973  58.39000320
H    25.23999977   8.89999962  56.17000198
H    24.51000023   9.72999954  57.51999664
S    13.56999969   6.34999990  54.05000305
C    10.81999969   6.60000038  54.61000061
C    12.13000107   6.81999969  54.97000122
C    12.50000000   7.48000050  56.18999863
C    11.46999931   7.92000008  57.00000000
C    10.11999989   7.65999985  56.69000244
C     9.07999992   7.77999973  57.64999771
C     7.76999998   7.46999979  57.36999893
C     7.36999989   6.91999960  56.11999893
C     8.38999939   6.67999983  55.22999573
C     9.75000000   7.02000046  55.45000076
C    13.94000053   7.57000017  56.36000061
C    14.65999985   7.00999975  55.27999878
C    16.04999924   6.88000011  55.28999710
C     6.00000000   6.32999992  55.93000031
H     5.36901331   6.82628155  55.19266891
H    10.57000065   6.01000023  53.73000336
H    11.71000004   8.18000031  58.02000046
H     9.27999973   8.03999996  58.68999863
H     7.04999971   7.59999990  58.16999817
H     8.25000000   5.95000029  54.43000031
H    16.63999939   6.32999992  54.56999969
H     5.46000004   6.17999983  56.86999893
H     6.05000019   5.31000042  55.52999878
S    17.13999939   8.69000053  52.95000076
C    19.82999992   8.82999992  52.11000061
C    18.50000000   8.57999992  51.81999969
C    18.12000084   8.03999996  50.54999924
C    19.09000015   8.00000000  49.55999756
C    20.45000076   8.30000019  49.78000259
C    21.47000122   8.39999962  48.79000092
C    22.75000000   8.82999992  49.08000183
C    23.15999985   9.13000011  50.40000153
C    22.17000008   9.11999989  51.36000061
C    20.81999969   8.73999977  51.10000229
C    16.69000053   7.77999973  50.51000214
C    16.01000023   8.22000027  51.66999817
C    14.63000107   8.14999962  51.84999847
C    24.61999893   9.44999981  50.61000061
H    24.96132088   8.78869247  51.40641403
H    20.03000069   9.26000023  53.08000183
H    18.75000000   7.92999983  48.53000259
H    21.18000031   8.18000031  47.77000046
H    23.45999908   9.04999924  48.29000092
H    22.32000160   9.48999977  52.37999725
H    14.19999981   8.39999962  52.81999969
H    25.13999939   9.19999981  49.66999817
H    24.73999977  10.52000046  50.80999756
S    13.47000027   7.59000015  48.06999969
C    10.78999996   7.35000038  48.74000168
C    12.06999969   7.65999985  49.13999939
C    12.44999981   7.92999983  50.50000000
C    11.44000053   8.10999966  51.42000198
C    10.10000038   7.78999996  51.07999802
C     9.06000042   7.81000042  52.04000092
C     7.79999971   7.36000013  51.69000244
C     7.46000004   7.05999947  50.34999847
C     8.42000008   7.16000032  49.36999893
C     9.77000046   7.40999985  49.72999954
C    13.89000034   7.92000008  50.68000031
C    14.56999969   7.72000027  49.45000076
C    15.93999958   7.53000021  49.36000061
C     6.05000019   6.63999987  50.00000000
H     5.62986135   7.22392178  49.18108749
H    10.59000015   6.98999977  47.74000168
H    11.64999962   8.27000046  52.48000336
H     9.31999969   8.17000008  53.02999878
H     7.07000017   7.27999973  52.49000168
H     8.19000053   6.94999981  48.31999969
H    16.53000069   7.57000017  48.43999863
H     5.42000008   6.63999987  50.90000153
H     6.12999964   5.59000015  49.68999863
