96

S    16.95000076   8.03999996  58.77999878
C    19.57999992   8.30999947  57.91999817
C    18.30000114   7.92000008  57.63000107
C    17.89999962   7.55999994  56.30000305
C    18.89999962   7.36000013  55.37000275
C    20.25000000   7.72000027  55.61999893
C    21.34000015   7.46999979  54.73999786
C    22.63999939   7.82000017  55.06000137
C    22.92000008   8.28999996  56.37000275
C    21.93000031   8.51000023  57.29999924
C    20.59999847   8.14999962  56.93999863
C    16.45000076   7.50999975  56.22000122
C    15.80999947   7.73000002  57.45999908
C    14.42999935   7.90999985  57.56999969
C    24.36000061   8.52000046  56.75000000
H    24.63609123   7.94657946  57.63490677
H    19.77000046   8.64999962  58.94000244
H    18.72999954   6.96000004  54.38000107
H    21.12999916   7.13999987  53.73000336
H    23.39999962   7.78999996  54.27999878
H    22.14999962   8.98999977  58.25000000
H    14.02999973   8.27000046  58.50999832
H    25.07999802   8.34999943  55.93999863
H    24.31999969   9.59000015  56.97000122
S    13.09000015   6.84000015  53.99000168
C    10.42000008   6.94000006  54.79000092
C    11.72999954   7.23000002  55.06000137
C    12.18999958   7.60999966  56.37000275
C    11.25000000   7.78999996  57.36000061
C     9.89000034   7.53000021  57.09000015
C     8.88000011   7.68000031  58.09000015
C     7.53999996   7.46999979  57.84999847
C     7.11000013   7.11000013  56.53999710
C     8.05000019   6.98000002  55.54999924
C     9.43000031   7.25000000  55.76000214
C    13.64999962   7.64999962  56.44000244
C    14.27999973   7.21000004  55.25000000
C    15.65999985   7.26999998  55.08999634
C     5.65999985   6.77999973  56.27999878
H     5.25496674   7.37689161  55.46282959
H    10.10000038   6.48000002  53.86000061
H    11.50000000   8.15999985  58.34999847
H     9.22999954   8.06999969  59.03999710
H     6.81999969   7.53999996  58.66000366
H     7.78999996   6.63000011  54.54999924
H    16.10000038   7.00000000  54.13000107
H     5.17000008   6.91999960  57.25000000
H     5.72000027   5.73000002  55.97000122
S    17.13999939   8.89999962  52.77999878
C    19.85000038   8.75000000  51.93999863
C    18.50000000   8.57999992  51.69000244
C    18.06999969   7.94000053  50.48999786
C    19.00000000   7.67000008  49.50000000
C    20.36000061   8.00000000  49.66999817
C    21.38000107   7.68000031  48.72000122
C    22.70000076   7.86000013  49.02999878
C    23.16999817   8.38000011  50.26000214
C    22.20999908   8.71999931  51.18000031
C    20.81999969   8.53999996  50.93000031
C    16.61999893   7.90999985  50.37000275
C    15.98000050   8.38000011  51.55000305
C    14.59000015   8.43000031  51.58000183
C    24.61999893   8.76000023  50.50000000
H    25.06992912   8.15295124  51.28559113
H    20.17000008   9.13999939  52.90000153
H    18.77000046   7.26000023  48.52000427
H    21.05999947   7.34000015  47.72999573
H    23.43000031   7.68000031  48.23999786
H    22.32000160   9.04999924  52.21000290
H    14.09999943   8.97999954  52.37999725
H    25.13999939   8.56000042  49.54999924
H    24.67000008   9.76000023  50.93000031
S    13.43999958   7.17999983  47.90999985
C    10.75000000   7.13000011  48.63999939
C    12.05000019   7.44999981  48.97999573
C    12.41000080   7.95000029  50.27000046
C    11.39000034   8.26000023  51.16000366
C    10.06000042   7.85000038  50.91999817
C     9.03999996   8.03999996  51.90000153
C     7.73000002   7.71000004  51.69000244
C     7.39000034   7.18999958  50.40999985
C     8.34999943   7.05999947  49.43000031
C     9.73999977   7.31999969  49.61999893
C    13.85000038   8.00000000  50.47000122
C    14.47999954   7.51999950  49.29999924
C    15.86999989   7.46999979  49.27000046
C     5.95000029   6.85999966  50.08999634
H     5.50340319   7.51926231  49.34566879
H    10.51000023   6.74000025  47.65999603
H    11.61999893   8.61999989  52.15000153
H     9.39999962   8.46000004  52.84000015
H     6.98999977   7.97999954  52.43000031
H     8.03999996   6.53999996  48.52000427
H    16.38000107   7.00999975  48.43000031
H     5.31000042   6.85999966  50.97999954
H     5.84999990   5.82999992  49.72999954
