96

S    17.30999947   8.23000050  58.74000168
C    19.92000008   8.25000000  57.95999908
C    18.67000008   7.73999977  57.70000076
C    18.27999878   7.17999983  56.44000244
C    19.27000046   7.09999990  55.47000122
C    20.58000183   7.55999994  55.70999908
C    21.63999939   7.23999977  54.80999756
C    22.95000076   7.55000019  55.06999969
C    23.25000000   8.23000050  56.27999878
C    22.29000092   8.48999977  57.23999786
C    20.95000076   8.07999992  57.00000000
C    16.82999992   7.13000011  56.27999878
C    16.22999954   7.68000031  57.44999695
C    14.86999989   7.95000029  57.35000229
C    24.68000031   8.64000034  56.55000305
H    25.15012550   8.02741146  57.31929779
H    20.12000084   8.89000034  58.81999969
H    19.04999924   6.61999989  54.52000046
H    21.28000069   6.77999973  53.88999939
H    23.75000000   7.46000004  54.34000015
H    22.52000046   8.93000031  58.20000076
H    14.40000057   8.42000008  58.20999908
H    25.26000023   8.52000046  55.61999893
H    24.68000031   9.63999939  56.98999786
S    13.66000080   6.65000010  53.77999878
C    10.95999908   6.89000034  54.41999817
C    12.27000046   7.09999990  54.77000427
C    12.71000004   7.63000011  56.03000259
C    11.68000031   7.79999971  56.93000031
C    10.31000042   7.59999990  56.65999985
C     9.26000023   7.77999973  57.62000275
C     7.94000053   7.57000017  57.32999802
C     7.62000036   7.03999996  56.05999756
C     8.56000042   6.84999990  55.06999969
C     9.92999935   7.09000015  55.37000275
C    14.15999985   7.55000019  56.20999908
C    14.81999969   7.03000021  55.06999969
C    16.20000076   6.93000031  55.05000305
C     6.21000004   6.54999971  55.80999756
H     5.61723518   7.22132444  55.18866730
H    10.71000004   6.47000027  53.43999863
H    11.90999985   8.05999947  57.95999908
H     9.53999996   8.05999947  58.62999725
H     7.20000029   7.51999950  58.13000107
H     8.28999996   6.74000025  54.02000046
H    16.75000000   6.61000013  54.16999817
H     5.68000031   6.34000015  56.75000000
H     6.26999950   5.58000040  55.30000305
S    13.42000008   4.67000008  50.65000153
C    10.76000023   4.30000019  51.35000229
C    12.07999992   4.05999994  51.63999939
C    12.50000000   3.47000003  52.88000107
C    11.51999950   2.99000001  53.72000122
C    10.14999962   3.12999988  53.40000153
C     9.09000015   2.66000009  54.23999786
C     7.76999998   2.94999981  54.01000214
C     7.40000010   3.68999982  52.84999847
C     8.36999989   4.21999979  52.04000092
C     9.75000000   3.91999984  52.27000427
C    13.94999981   3.53999996  53.00000000
C    14.57999992   4.18000031  51.90999985
C    15.93000031   4.51999998  51.90999985
C     5.96000004   3.82999992  52.43000031
H     5.69777441   3.10710764  51.65749359
H    10.52999973   5.03999996  50.58000183
H    11.73999977   2.45000005  54.64000320
H     9.39999962   2.02999997  55.06999969
H     7.07000017   2.56000018  54.75000000
H     8.09000015   4.65000010  51.09000397
H    16.32999992   5.23999977  51.18999863
H     5.31000042   3.68999982  53.29999924
H     5.75999975   4.85000038  52.06999969
S    17.20999908   3.17999983  55.38999939
C    19.93000031   3.60000014  54.80999756
C    18.60999870   3.72000003  54.43999863
C    18.19000053   4.30000019  53.20000076
C    19.15999985   4.67000008  52.29000092
C    20.53999901   4.55000019  52.61000061
C    21.57999992   5.03000021  51.77000046
C    22.86999893   4.67999983  52.08000183
C    23.29999924   4.11999989  53.31999969
C    22.29000092   3.76999998  54.18000031
C    20.92000008   3.97000027  53.87000275
C    16.76000023   4.13999987  52.97000122
C    16.09000015   3.52999973  54.06000137
C    14.75000000   3.15000010  54.08000183
C    24.75000000   3.72000003  53.50999832
H    25.14065552   4.13196373  54.44046783
H    20.20999908   3.16000009  55.77000046
H    19.01000023   5.15999985  51.32999802
H    21.35999870   5.53999996  50.83000183
H    23.59999847   4.86000013  51.30000305
H    22.53000069   3.35000014  55.15999603
H    14.32999992   2.61999989  54.93000031
H    25.39999962   3.95000005  52.65999603
H    24.72999954   2.63000011  53.48999786
