96

S    17.20000076   8.46000004  58.75000000
C    19.88000107   8.93000031  58.00000000
C    18.59000015   8.63000011  57.65999603
C    18.27999878   8.05999947  56.38000107
C    19.27000046   7.92000008  55.41999817
C    20.59999847   8.23000050  55.77999878
C    21.65999985   7.96000004  54.86999893
C    22.96999931   8.30000019  55.17000198
C    23.28000069   8.90999985  56.40999603
C    22.29999924   9.07999992  57.36000061
C    20.95000076   8.71000004  57.09000015
C    16.88999939   7.63999987  56.25999832
C    16.17000008   7.82000017  57.45999908
C    14.78000069   7.76000023  57.57999802
C    24.69000053   9.26000023  56.81000137
H    25.05320168   8.61193466  57.60762024
H    20.26000023   9.13999939  59.00000000
H    19.17000008   7.39000034  54.47999954
H    21.37000084   7.55000019  53.90999603
H    23.72999954   8.14000034  54.40999985
H    22.43000031   9.63000011  58.29000092
H    14.25000000   7.86000013  58.52000427
H    25.36000061   9.19000053  55.93999863
H    24.70999908  10.29000092  57.19999695
S    13.60999966   7.07999992  53.87000275
C    10.92000008   6.74000025  54.47000122
C    12.20000076   6.91999960  54.93999863
C    12.56000042   7.22000027  56.29000092
C    11.51000023   7.46000004  57.16999817
C    10.19999981   7.13999987  56.77000046
C     9.03999996   7.37999964  57.56000137
C     7.75000000   7.11999989  57.14000320
C     7.42999983   6.67999983  55.83000183
C     8.52999973   6.52999973  55.01999664
C     9.88000011   6.71000004  55.43000031
C    13.97999954   7.44999981  56.46999741
C    14.70000076   7.28999996  55.26000214
C    16.07999992   7.17999983  55.20999908
C     5.98000002   6.44000006  55.45000076
H     5.44552612   7.15975809  54.83001328
H    10.69000053   6.47000027  53.43999863
H    11.54000092   7.94000053  58.13999939
H     9.11000061   7.67000008  58.61000061
H     6.84000015   7.40000010  57.65999603
H     8.30999947   6.30000019  53.97999573
H    16.54000092   6.93000031  54.26000214
H     5.55000019   6.40999985  56.45000076
H     5.86999989   5.45000029  54.99000168
S    17.64000130   8.89000034  52.65999603
C    20.34000015   9.04999924  51.86999893
C    19.05999947   8.63000011  51.62000275
C    18.68000031   8.10999966  50.34000015
C    19.65999985   7.81000042  49.40999985
C    21.01000023   8.14000034  49.68999863
C    22.01999855   8.01999950  48.69999695
C    23.31000137   8.38999939  49.02000046
C    23.68000031   8.90999985  50.28999710
C    22.70999908   9.06000042  51.25999832
C    21.38000107   8.64000034  50.98999786
C    17.25000000   7.90000010  50.21999741
C    16.54999924   8.34999943  51.37000275
C    15.15999985   8.48999977  51.44000244
C    25.09000015   9.36999989  50.56000137
H    25.58645058   8.80262756  51.34722900
H    20.55000114   9.77000046  52.64999771
H    19.50000000   7.37999964  48.43000031
H    21.76000214   7.75000000  47.68000031
H    24.11000061   8.46000004  48.29999924
H    22.93999863   9.52999973  52.21000290
H    14.70000076   8.93000031  52.30999756
H    25.69999886   9.17000008  49.68000031
H    25.20999908  10.44999981  50.73999786
S    14.04999924   7.37999964  47.81999969
C    11.35000038   7.20000029  48.40000153
C    12.61000061   7.50999975  48.86000061
C    12.96000004   7.92999983  50.18000031
C    11.97000027   8.30000019  51.07999802
C    10.65999985   7.96999979  50.65999985
C     9.55999947   8.05999947  51.56000137
C     8.26000023   7.86000013  51.17000198
C     7.96999979   7.34000015  49.88999939
C     8.98999977   7.14999962  48.99000168
C    10.32999992   7.46000004  49.36000061
C    14.39000034   8.10999966  50.33000183
C    15.11999989   7.63000011  49.20999908
C    16.50000000   7.44999981  49.12000275
C     6.60000038   6.84999990  49.48999786
H     6.06724215   7.56034374  48.85779572
H    11.07999992   6.74000025  47.45999908
H    12.18000031   8.71000004  52.05999756
H     9.81000042   8.23999977  52.60000229
H     7.42000008   7.88999987  51.86999893
H     8.76000023   6.84000015  47.97000122
H    16.88999939   7.00000000  48.20999908
H     6.02999973   6.51999998  50.37000275
H     6.72999954   5.97000027  48.83999634
