96

S    16.79999924   8.38000011  58.88000107
C    19.54000092   8.50000000  58.16999817
C    18.22999954   8.19999981  57.84999847
C    17.84000015   7.76999998  56.53999710
C    18.76000023   7.46000004  55.56000137
C    20.12000084   7.63000011  55.94999695
C    21.12999916   7.48000050  54.95999908
C    22.44999886   7.76999998  55.20000076
C    22.85000038   8.38999939  56.42000198
C    21.87999916   8.64000034  57.36999893
C    20.52999878   8.23000050  57.18999863
C    16.39000130   7.65999985  56.38000107
C    15.67999935   7.92999983  57.56999969
C    14.29999924   8.13000011  57.56999969
C    24.25000000   8.90999985  56.65000153
H    24.70673943   8.36762238  57.47784042
H    19.84000015   9.06000042  59.05000305
H    18.43000031   7.09999990  54.59999847
H    20.76999855   7.44000006  53.94000244
H    23.12999916   7.92999983  54.36999893
H    22.22999954   9.15999985  58.26000214
H    13.78000069   8.52999973  58.43999863
H    24.84999847   8.94999981  55.72999954
H    24.23000145   9.96000004  56.95000076
S    13.25000000   6.90999985  53.88999939
C    10.52999973   6.88000011  54.47999954
C    11.79999924   7.23999977  54.86000061
C    12.15999985   7.69999981  56.17000198
C    11.11999989   7.90000010  57.04999924
C     9.77999973   7.59999990  56.69000244
C     8.73000050   7.85000038  57.62000275
C     7.40999985   7.51999950  57.43000031
C     7.13000011   7.03999996  56.11999893
C     8.05999947   6.90999985  55.12000275
C     9.44999981   7.13000011  55.37000275
C    13.60000038   7.77999973  56.40999603
C    14.29999924   7.42999983  55.22999573
C    15.69000053   7.40000010  55.20000076
C     5.69000006   6.80000019  55.72000122
H     5.37164164   7.31644821  54.81444550
H    10.32999992   6.48999977  53.48999786
H    11.32999992   8.32999992  58.02000046
H     9.10000038   8.23000050  58.56999969
H     6.63999987   7.73999977  58.15999985
H     7.77999973   6.57000017  54.13000107
H    16.25000000   7.00000000  54.36000061
H     4.97000027   7.26999998  56.39999771
H     5.46000004   5.73000002  55.73999786
S    13.61999989   5.10999966  50.84000015
C    10.92000008   4.67999983  51.44000244
C    12.23999977   4.42999983  51.72000122
C    12.68000031   3.74000025  52.90000153
C    11.67000008   3.38000011  53.77999878
C    10.29999924   3.63000011  53.52000427
C     9.30999947   3.22000003  54.45999908
C     7.96999979   3.44000006  54.23999786
C     7.57000017   3.98999977  52.98999786
C     8.47999954   4.28000021  52.00000000
C     9.86999989   4.23000002  52.29000092
C    14.11999893   3.81000018  53.06000137
C    14.78999996   4.56999969  52.05999756
C    16.13000107   4.92999983  52.11000061
C     6.10000038   4.25000000  52.74000168
H     5.65145397   3.80857420  51.85002899
H    10.70000076   5.26999998  50.54999924
H    11.97999954   2.84999990  54.66999817
H     9.61999989   2.70000005  55.35999680
H     7.26000023   3.14000010  55.00000000
H     8.14000034   4.59999990  51.02000427
H    16.60000038   5.55999994  51.36000061
H     5.53999996   4.11000013  53.68000031
H     6.09000015   5.32999992  52.55000305
S    17.35000038   3.37000012  55.58000183
C    20.05000114   3.89999986  54.98000336
C    18.71999931   4.03999996  54.66999817
C    18.26000023   4.59999990  53.43999863
C    19.19999886   5.09000015  52.55000305
C    20.58000183   4.90999985  52.80000305
C    21.54999924   5.32999992  51.84000015
C    22.88999939   5.03000021  51.95999908
C    23.31000137   4.28000021  53.09000015
C    22.39999962   3.93000007  54.06000137
C    21.01000023   4.23999977  54.00000000
C    16.81999969   4.55000019  53.27000046
C    16.18999863   3.82999992  54.31000137
C    14.82999992   3.55999994  54.23999786
C    24.76000023   3.89999986  53.29000092
H    25.04511452   4.38469362  54.22374725
H    20.38000107   3.44000006  55.90999985
H    18.82999992   5.52999973  51.62000275
H    21.05999947   5.77000046  50.97999954
H    23.57000160   5.32999992  51.17000198
H    22.72000122   3.45000005  54.98000336
H    14.30999947   3.26999998  55.14999771
H    25.32999992   4.34999990  52.45999908
H    24.93000031   2.82000017  53.34999847
