96

S    17.06999969   8.36999989  58.68999863
C    19.71999931   8.76000023  58.06000137
C    18.52000046   8.19999981  57.69000244
C    18.18000031   7.69999981  56.38999939
C    19.26000023   7.53000021  55.54000092
C    20.53999901   8.07999992  55.81999969
C    21.59000015   8.02999973  54.86000061
C    22.88000107   8.28999996  55.25000000
C    23.13999939   8.73000050  56.56999969
C    22.11999893   8.97000027  57.45999908
C    20.78000069   8.60999966  57.12999725
C    16.73999977   7.57999992  56.24000168
C    15.97000027   7.97999954  57.36000061
C    14.57999992   8.09000015  57.36999893
C    24.57999992   9.11000061  56.88000107
H    24.96486282   8.43292809  57.64259720
H    19.88000107   9.18000031  59.05000305
H    19.06999969   7.20000029  54.52000046
H    21.45999908   7.48000050  53.93000031
H    23.74000168   8.19000053  54.59999847
H    22.26000023   9.55000019  58.36999893
H    14.18000031   8.64000034  58.22000122
H    25.29000092   9.01000023  56.04999924
H    24.57999992  10.11999989  57.29000092
S    13.55000019   6.93000031  53.74000168
C    10.82999992   7.00000000  54.29000092
C    12.10999966   7.28999996  54.71000290
C    12.43999958   7.62000036  56.05999756
C    11.40999985   7.92000008  56.93000031
C    10.08999920   7.64999962  56.50000000
C     9.00000000   7.72000027  57.39999771
C     7.67000008   7.60999966  57.05999756
C     7.35000038   7.26000023  55.72999954
C     8.38000011   6.96000004  54.86000061
C     9.73999977   7.22000027  55.17000198
C    13.89000034   7.73000002  56.20999908
C    14.61999989   7.18999958  55.13000107
C    16.01000023   7.13000011  55.13000107
C     5.88000011   7.14999962  55.38999939
H     5.45902538   7.72081327  54.56232071
H    10.57000065   6.43000031  53.40000153
H    11.59000015   8.11999989  57.98999786
H     9.26999950   8.19000053  58.34000015
H     6.90000010   7.79999971  57.81000137
H     8.27000046   6.65000010  53.81999969
H    16.54999924   6.72999954  54.27000046
H     5.35000038   7.34000015  56.32999802
H     5.75000000   6.10000038  55.08999634
S    13.73999977   5.19000006  50.84999847
C    11.05999947   4.48999977  51.40999603
C    12.38999939   4.48000002  51.76000214
C    12.74000072   3.74000025  52.94000244
C    11.78999996   3.25000000  53.81000137
C    10.40999985   3.40999985  53.54999924
C     9.36999989   2.99000001  54.41999817
C     8.05999947   3.37000012  54.26000214
C     7.69000006   3.91999984  53.00000000
C     8.67000008   4.28999996  52.09999847
C    10.06000042   4.09999990  52.34000397
C    14.19000053   3.78999996  53.02999878
C    14.88000011   4.51000023  52.02000046
C    16.22999954   4.86000013  52.11999893
C     6.25999975   4.32999992  52.72999573
H     5.92445278   3.80169201  51.83758545
H    10.67000008   4.84000015  50.45000076
H    12.09000015   2.84999990  54.78000259
H     9.64999962   2.56999993  55.38999939
H     7.34000015   3.30000019  55.06000137
H     8.36000061   4.78999996  51.18999863
H    16.75000000   5.35000038  51.30000305
H     5.64000034   4.09000015  53.60000229
H     6.23000050   5.38999987  52.44999695
S    17.36999893   3.28000021  55.56999969
C    20.09000015   3.84999990  55.01999664
C    18.76000023   4.00000000  54.72999954
C    18.38000107   4.61000013  53.47999954
C    19.34000015   5.12000036  52.62000275
C    20.71000099   5.00999975  52.93000031
C    21.73000145   5.36999989  52.00000000
C    23.06999969   5.23999977  52.31999969
C    23.43000031   4.80999994  53.62999725
C    22.46999931   4.30000019  54.47000122
C    21.07999992   4.42000008  54.18000031
C    16.95999908   4.44999981  53.23999786
C    16.27000046   3.74000025  54.25000000
C    14.93999958   3.35999990  54.13999939
C    24.89999962   4.63999987  53.90999603
H    25.22801399   4.90383625  54.91542816
H    20.55000114   3.30999994  55.84999847
H    19.02000046   5.42999983  51.63000107
H    21.30000114   5.86000013  51.12999725
H    23.77000046   5.55000019  51.56000137
H    22.77000046   3.77999997  55.38000107
H    14.51000023   2.82999992  54.98000336
H    25.48000145   5.21000004  53.16999817
H    24.99000168   3.56999993  53.68000031
