96

S    16.79999924   8.73000050  58.86000061
C    19.54000092   8.53999996  58.26000214
C    18.22999954   8.42000008  57.85999680
C    17.86999893   7.95000029  56.55000305
C    18.79999924   7.76999998  55.54000092
C    20.13999939   8.05999947  55.89000320
C    21.19999886   7.95000029  54.93999863
C    22.52000046   8.23999977  55.22999573
C    22.85000038   8.69000053  56.52999878
C    21.84999847   8.84000015  57.47000122
C    20.50000000   8.47999954  57.22000122
C    16.44000053   7.76000023  56.40999603
C    15.72000027   8.19000053  57.56000137
C    14.32999992   8.17000008  57.68000031
C    24.25000000   9.11000061  56.91999817
H    24.61397934   8.55332661  57.78355789
H    19.85999870   8.98999977  59.20000076
H    18.52000046   7.55999994  54.51000214
H    20.86000061   7.46000004  54.02999878
H    23.25000000   8.01000023  54.45999908
H    21.98999786   9.09000015  58.52000427
H    13.86999989   8.60000038  58.56999969
H    24.90999985   8.89999962  56.06999969
H    24.18000031  10.19000053  57.08000183
S    13.15999985   7.07000017  54.03999710
C    10.44000053   7.23999977  54.65999985
C    11.75000000   7.36000013  55.06999969
C    12.13000107   7.73999977  56.38999939
C    11.10000038   8.01000023  57.28000259
C     9.72999954   7.86999989  56.95000076
C     8.71999931   7.88000011  57.95000076
C     7.40999985   7.60999966  57.63000107
C     7.07999992   7.18999958  56.31999969
C     8.03999996   7.17999983  55.34000015
C     9.40999985   7.49000025  55.59999847
C    13.57999992   7.79999971  56.56000137
C    14.27000046   7.48000050  55.37000275
C    15.65000057   7.44000006  55.30000305
C     5.65000010   6.84000015  55.93999863
H     5.24351311   7.46042728  55.14128876
H    10.24000072   6.81999969  53.68000031
H    11.44999981   8.23000050  58.27999878
H     9.10000038   8.01999950  58.95999908
H     6.71000004   7.46999979  58.44999695
H     7.78999996   6.72999954  54.38000107
H    16.14999962   7.05999947  54.40999985
H     5.03999996   6.76000023  56.84999847
H     5.89999962   5.84000015  55.56999969
S    13.73000050   4.98000002  50.93999863
C    11.07999992   4.72000027  51.70000076
C    12.39999962   4.46999979  51.98999786
C    12.81000042   3.86000013  53.22000122
C    11.84000015   3.44000006  54.10999680
C    10.47999954   3.75000000  53.86000061
C     9.47000027   3.23000002  54.72000122
C     8.14000034   3.51000023  54.54000092
C     7.72000027   4.17000008  53.34999847
C     8.67000008   4.61999989  52.47000122
C    10.06000042   4.36999989  52.63000107
C    14.25000000   4.05000019  53.37999725
C    14.86999989   4.69999981  52.28000259
C    16.21000099   5.03999996  52.22999954
C     6.24000025   4.44999981  53.22999954
H     5.82937670   4.06769562  52.29547882
H    10.80999947   5.23999977  50.79000092
H    12.05999947   2.87999988  55.00999832
H     9.85999966   2.59000015  55.51000214
H     7.34000015   3.10999990  55.15999603
H     8.30999947   5.23999977  51.65000153
H    16.57999992   5.63000011  51.39999771
H     5.80999947   3.96000004  54.10999680
H     5.95000029   5.51000023  53.27000046
S    17.61000061   3.44000006  55.59999847
C    20.25000000   4.13000011  55.06999969
C    18.93000031   4.23000002  54.72000122
C    18.45000076   4.86999989  53.53000259
C    19.40999985   5.27999973  52.62000275
C    20.79999924   5.09999990  52.85999680
C    21.80999947   5.58000040  51.97999954
C    23.13999939   5.40999985  52.25999832
C    23.55999947   4.85000038  53.50000000
C    22.60000038   4.46000004  54.40999985
C    21.21000099   4.55999994  54.12000275
C    17.00000000   4.81999969  53.36999893
C    16.44000053   4.02999973  54.40000153
C    15.07999992   3.74000025  54.45999908
C    24.97999954   4.41000032  53.80000305
H    25.48633766   4.95199394  54.59873199
H    20.52000046   3.42000008  55.86000061
H    18.98999977   5.61999989  51.68000031
H    21.59000015   5.95000029  50.97999954
H    23.84000015   5.58000040  51.45000076
H    22.85000038   4.05000019  55.38000107
H    14.68999958   3.17000008  55.30000305
H    25.58000183   4.51000023  52.88999939
H    25.00000000   3.32999992  54.02999878
