96

S    17.20000076   8.27000046  58.93000031
C    19.88000107   8.25000000  58.20000076
C    18.60000038   7.83999968  57.91999817
C    18.20000076   7.46000004  56.59000015
C    19.14999962   7.57999992  55.59999847
C    20.50000000   7.92999983  55.86999893
C    21.53000069   7.79999971  54.89999771
C    22.84000015   8.05999947  55.22999573
C    23.19999886   8.55000019  56.51000214
C    22.22999954   8.65999985  57.48000336
C    20.89999962   8.23000050  57.22000122
C    16.75000000   7.44999981  56.46999741
C    16.06999969   7.99000025  57.58999634
C    14.68000031   8.09000015  57.57999802
C    24.61999893   9.00000000  56.76000214
H    25.11168289   8.33016872  57.46546173
H    20.17999840   8.57999992  59.19000244
H    18.90999985   7.26999998  54.59000015
H    21.30000114   7.49000025  53.88000107
H    23.61000061   8.01000023  54.47000122
H    22.43999863   8.97999954  58.48999786
H    14.14999962   8.34999943  58.48999786
H    25.13999939   9.09000015  55.79000092
H    24.79000092  10.01999950  57.11999893
S    13.61999989   7.11999989  53.85000229
C    10.90000057   7.26999998  54.40999985
C    12.18999958   7.50999975  54.82999802
C    12.51999950   7.81000042  56.18999863
C    11.46000004   8.07999992  57.02999878
C    10.14000034   7.76999998  56.63000107
C     9.04999924   7.85000038  57.54000092
C     7.78999996   7.42000008  57.22000122
C     7.51999950   6.90999985  55.91999817
C     8.51000023   6.83000040  54.97000122
C     9.81999969   7.23999977  55.33000183
C    13.96000004   7.77999973  56.42000198
C    14.65000057   7.27999973  55.28999710
C    16.03999901   7.22000027  55.27999878
C     6.15000010   6.44000006  55.51000214
H     5.57385159   7.21531105  55.00498199
H    10.76000023   6.97000027  53.37999725
H    11.65999985   8.28999996  58.08000183
H     9.23999977   8.47000027  58.41999817
H     6.96000004   7.59000015  57.90999985
H     8.23000050   6.32999992  54.03999710
H    16.59000015   7.04999971  54.36000061
H     5.69999981   5.98999977  56.40999603
H     6.47000027   5.59999990  54.88999939
S    13.15999985   5.22000027  51.00999832
C    10.51000023   4.76999998  51.73999786
C    11.84000015   4.56999969  52.00000000
C    12.35999966   3.95000005  53.18999863
C    11.46999931   3.50000000  54.15000153
C    10.08999920   3.63999987  53.89999771
C     9.15000057   3.05000019  54.79999924
C     7.82000017   2.99000001  54.43999863
C     7.34000015   3.51000023  53.20999908
C     8.22000027   4.13000011  52.35000229
C     9.59999943   4.21000004  52.67000198
C    13.81000042   4.05999994  53.30999756
C    14.37999916   4.71000004  52.18999863
C    15.72000027   5.09000015  52.23999786
C     5.91000032   3.17999983  52.81999969
H     5.58293629   3.64215517  51.88858032
H    10.21000004   5.25000000  50.80999756
H    11.78999996   3.12999988  55.12000275
H     9.44999981   2.50000000  55.68999863
H     7.22000027   2.43000007  55.14999771
H     7.96999979   4.48000002  51.35000229
H    16.15999985   5.65000010  51.42000198
H     5.82999992   2.09999990  52.69000244
H     5.15999985   3.40999985  53.57999802
S    17.12000084   3.31999993  55.52999878
C    19.79999924   4.00000000  55.01999664
C    18.45999908   4.13999987  54.72000122
C    17.97000122   4.82999992  53.56999969
C    18.93000031   5.31000042  52.69000244
C    20.30999947   5.17000008  52.95000076
C    21.31999969   5.55999994  52.02000046
C    22.65999985   5.31000042  52.22999954
C    23.15000153   4.67999983  53.40000153
C    22.19000053   4.32000017  54.31000137
C    20.79000092   4.51000023  54.13999939
C    16.54999924   4.69000006  53.29999924
C    15.95000076   3.95000005  54.34999847
C    14.59000015   3.68000007  54.41999817
C    24.60000038   4.30999994  53.61000061
H    25.05003548   4.84575701  54.44578171
H    20.10999870   3.44000006  55.90000153
H    18.57999992   5.59999990  51.70000076
H    20.89999962   5.93999958  51.10000229
H    23.36000061   5.75000000  51.52000046
H    22.42000198   3.81000018  55.25000000
H    14.14999962   3.12999988  55.25000000
H    25.15000153   4.63000011  52.71999741
H    24.54000092   3.22000003  53.69999695
