96

S    16.75000000   8.60000038  58.68000031
C    19.52000046   8.25000000  58.29999924
C    18.22999954   8.06999969  57.85999680
C    17.89999962   7.49000025  56.59000015
C    18.96999931   7.26000023  55.75000000
C    20.30999947   7.55999994  56.07999802
C    21.31000137   7.53999996  55.06999969
C    22.62000084   7.78999996  55.38000107
C    22.90999985   8.14999962  56.72999954
C    21.97999954   8.19000053  57.74000168
C    20.61000061   7.92999983  57.43999863
C    16.47999954   7.51999950  56.25000000
C    15.72999954   8.03999996  57.34000397
C    14.35999966   8.28999996  57.39999771
C    24.21999931   8.82000065  57.05999756
H    24.73049164   8.16061306  57.76192856
H    19.72999954   8.80000019  59.20999908
H    18.73999977   6.85999966  54.77000427
H    21.02000046   7.22000027  54.06999969
H    23.35000038   7.73000002  54.58000183
H    22.25000000   8.57999992  58.72000122
H    13.80000019   8.82999992  58.15999985
H    24.87999916   8.85000038  56.18000031
H    24.05999947   9.84000015  57.41000366
S    13.20000076   6.77999973  53.89999771
C    10.52000046   6.76999998  54.58000183
C    11.79999924   7.14999962  54.92000198
C    12.18999958   7.78999996  56.12999725
C    11.19999981   8.10999966  57.04000092
C     9.88000011   7.63000011  56.81999969
C     8.84000015   7.75000000  57.77999878
C     7.53999996   7.37999964  57.50999832
C     7.30000019   6.63000011  56.31999969
C     8.27999973   6.38000011  55.38999939
C     9.52999973   7.03000021  55.56000137
C    13.63999939   7.81000042  56.30000305
C    14.32999992   7.36999989  55.13999939
C    15.70000076   7.17999983  55.13999939
C     5.84999990   6.24000025  56.11000061
H     5.42315865   6.76643753  55.25632095
H    10.19999981   6.21000004  53.69999695
H    11.44999981   8.56000042  57.98999786
H     9.00000000   8.39999962  58.63999939
H     6.86999989   7.37999964  58.36000061
H     8.01000023   5.78000021  54.52999878
H    16.22999954   6.70000029  54.31999969
H     5.31000042   6.43000031  57.04000092
H     5.84999990   5.14999962  55.97999954
S    13.61999989   4.65999985  50.90999985
C    11.00000000   4.19000006  51.58000183
C    12.31999969   3.88000011  51.81999969
C    12.71999931   3.19999981  53.02000046
C    11.76000023   2.84999990  53.95000076
C    10.39000034   3.09999990  53.69999695
C     9.36999989   2.66000009  54.58000183
C     8.05000019   2.84999990  54.25000000
C     7.64999962   3.48000002  53.04000092
C     8.61999989   3.91999984  52.16999817
C    10.00000000   3.65999985  52.43000031
C    14.15999985   3.32999992  53.20999908
C    14.73999977   4.07999992  52.15999985
C    16.07999992   4.44999981  52.09000015
C     6.21999979   3.88000011  52.77000046
H     5.78633118   3.34680080  51.92399216
H    10.65000057   4.84000015  50.77999878
H    12.00000000   2.38000011  54.89999771
H     9.63999939   2.21000004  55.52999878
H     7.28999996   2.50000000  54.93999863
H     8.32999992   4.61999989  51.39999771
H    16.61000061   4.78999996  51.20999908
H     5.52999973   3.79999995  53.61999893
H     6.25999975   4.92999983  52.43999863
S    17.43999863   3.12000012  55.59000015
C    20.10000038   3.63000011  54.93999863
C    18.77000046   3.74000025  54.59000015
C    18.32999992   4.30999994  53.36000061
C    19.27000046   4.94000006  52.56999969
C    20.65000153   4.75000000  52.84000015
C    21.60000038   5.46999979  52.04999924
C    22.92000008   5.19999981  52.30999756
C    23.42000008   4.55000019  53.47000122
C    22.49000168   3.94000006  54.27000046
C    21.09000015   4.07000017  54.02999878
C    16.90000153   4.09999990  53.15999985
C    16.28999901   3.45999980  54.27999878
C    14.96000099   3.08999991  54.33000183
C    24.87999916   4.21000004  53.63999939
H    25.19911194   4.38019371  54.66825104
H    20.48000145   3.15000010  55.84000015
H    19.04999924   5.51000023  51.66999817
H    21.28000069   5.98000002  51.14999771
H    23.61999893   5.51999998  51.52999878
H    22.84000015   3.26999998  55.06000137
H    14.40000057   2.79000020  55.21999741
H    25.58000183   4.80999994  53.04999924
H    25.00000000   3.14000010  53.40999985
