96

S    16.87999916   8.47000027  58.86000061
C    19.57999992   8.40999985  58.06999969
C    18.27000046   8.06999969  57.81999969
C    17.88999939   7.62000036  56.51000214
C    18.81999969   7.37999964  55.52000046
C    20.13999939   7.81000042  55.77000046
C    21.14000130   7.76000023  54.75000000
C    22.44999886   8.10000038  54.95999908
C    22.79999924   8.63000011  56.23000336
C    21.90000153   8.73999977  57.25999832
C    20.55000114   8.36000061  57.02999878
C    16.44000053   7.63999987  56.39999771
C    15.75000000   8.13000011  57.54000092
C    14.35999966   8.25000000  57.56999969
C    24.25000000   9.03999996  56.38000107
H    24.81347275   8.38380241  57.04332733
H    19.81999969   9.03999996  58.92000198
H    18.38000107   7.23999977  54.52999878
H    20.84000015   7.26000023  53.82999802
H    23.31999969   8.00000000  54.31000137
H    22.26000023   9.15999985  58.18999863
H    13.81999969   8.52999973  58.47000122
H    24.76000023   9.21000004  55.41999817
H    24.40999985   9.98999977  56.90000153
S    13.22000027   7.07000017  53.99000168
C    10.53999996   6.77999973  54.69999695
C    11.82000065   7.13000011  55.07999802
C    12.18999958   7.53999996  56.39999771
C    11.17000008   7.55999994  57.34000397
C     9.81000042   7.44999981  56.97999954
C     8.76000023   7.57000017  57.93000031
C     7.46999979   7.32999992  57.50999832
C     7.09999990   7.00999975  56.18000031
C     8.14000034   6.83000040  55.28999710
C     9.51000023   7.00999975  55.63999939
C    13.61999989   7.79999971  56.46999741
C    14.34999943   7.53999996  55.27999878
C    15.72999954   7.40999985  55.21999741
C     5.68000031   6.69000053  55.77000046
H     5.18261147   7.44318819  55.15892410
H    10.31999969   6.28000021  53.76999664
H    11.51999950   7.72000027  58.36000061
H     8.93999958   7.64999962  59.00000000
H     6.72999954   7.31999969  58.30999756
H     7.94000053   6.23000050  54.40999985
H    16.10999870   7.22000027  54.22000122
H     5.10999966   6.35999966  56.63999939
H     5.78000021   5.69999981  55.31000137
S    14.27999973   5.07000017  50.90999985
C    11.71000004   4.59000015  51.45999908
C    12.98999977   4.38000011  51.90999985
C    13.38000107   3.86000013  53.18999863
C    12.34000015   3.40999985  53.97999573
C    10.98999977   3.56999993  53.56999969
C     9.94999981   2.94999981  54.31999969
C     8.64000034   3.10999990  53.94000244
C     8.27000046   3.89999986  52.81999969
C     9.27999973   4.26000023  51.95999908
C    10.65999985   4.13000011  52.29000092
C    14.77000046   4.21000004  53.41999817
C    15.34999943   4.86000013  52.29999924
C    16.69999886   5.22000027  52.30999756
C     6.83000040   4.25000000  52.52999878
H     6.52445459   3.74549508  51.61336517
H    11.46999931   5.01999950  50.48999786
H    12.58999920   2.66999984  54.72999954
H    10.21999931   2.56000018  55.30000305
H     7.90000010   2.77999997  54.66999817
H     9.06000042   4.76000023  51.02000427
H    17.32999992   5.61999989  51.52999878
H     6.26999950   3.96000004  53.43000031
H     6.78999996   5.32999992  52.37999725
S    18.12999916   3.42000008  55.56999969
C    20.81000137   3.98000002  54.82999802
C    19.45999908   4.07999992  54.59000015
C    18.94000053   4.77999973  53.44999695
C    19.81999969   5.28999996  52.50999832
C    21.21999931   5.13999987  52.63999939
C    22.15999985   5.64000034  51.68000031
C    23.51000023   5.50000000  51.91999817
C    23.95999908   4.97000027  53.15000153
C    23.08000183   4.36999989  54.02000046
C    21.67000008   4.51999998  53.85000229
C    17.48999977   4.79999971  53.39000320
C    16.90999985   4.18000031  54.52000046
C    15.54999924   3.91999984  54.54999924
C    25.43000031   4.63000011  53.22000122
H    25.82834244   4.85762405  54.20874405
H    21.09000015   3.49000001  55.76000214
H    19.40999985   5.71000004  51.59999847
H    21.73000145   6.09000015  50.79999924
H    24.20000076   5.75000000  51.11999893
H    23.47999954   3.65999985  54.73999786
H    15.11000061   3.30999994  55.33000183
H    26.05999947   5.03999996  52.42000198
H    25.48000145   3.55999994  52.97000122
