96

S    17.00000000   8.31999969  58.90999603
C    19.76000023   8.47999954  58.23999786
C    18.45000076   8.26000023  57.88999939
C    18.04999924   7.82999992  56.58000183
C    19.05999947   7.48000050  55.70999908
C    20.43000031   7.59999990  56.04999924
C    21.52000046   7.53999996  55.13999939
C    22.82999992   7.78999996  55.45999908
C    23.16999817   8.32999992  56.72999954
C    22.13999939   8.50000000  57.62000275
C    20.79999924   8.07999992  57.36000061
C    16.61999893   7.71000004  56.33999634
C    15.93000031   8.09000015  57.51999664
C    14.55000019   8.26000023  57.47000122
C    24.56000137   8.82999992  57.04999924
H    25.05173683   8.21711063  57.80541992
H    19.97999954   9.10000038  59.09999847
H    18.82999992   7.17000008  54.68999863
H    21.25000000   7.40000010  54.09000015
H    23.54000092   7.63999987  54.65000153
H    22.34999847   8.97000027  58.57999802
H    14.01999950   8.80000019  58.26000214
H    25.25000000   9.04999924  56.22000122
H    24.47999954   9.85999966  57.39999771
S    13.48999977   6.98000002  53.83999634
C    10.77999973   7.04999971  54.40000153
C    12.05999947   7.28999996  54.84000397
C    12.39999962   7.69000006  56.17000198
C    11.33999920   7.86999989  57.04000092
C    10.01999950   7.64999962  56.60999680
C     8.94999981   7.82000017  57.54000092
C     7.63999987   7.75000000  57.15000153
C     7.25000000   7.40999985  55.83000183
C     8.28999996   7.13000011  54.97000122
C     9.67000008   7.28999996  55.25000000
C    13.83999920   7.76999998  56.37000275
C    14.55000019   7.30000019  55.22999573
C    15.93999958   7.23999977  55.21999741
C     5.84999990   6.96000004  55.48999786
H     5.30514860   7.56853580  54.76824951
H    10.54999924   6.52999973  53.47000122
H    11.51000023   8.13000011  58.08000183
H     9.19000053   8.11999989  58.55999756
H     6.84000015   7.82000017  57.88000107
H     8.09000015   6.63999987  54.02000046
H    16.45000076   6.98999977  54.29000092
H     5.38000011   6.80000019  56.45999908
H     6.00000000   5.93999958  55.12000275
S    13.97999954   4.97000027  50.90999985
C    11.30000019   4.57999992  51.59999847
C    12.61999989   4.28000021  51.81999969
C    13.07000065   3.75999975  53.08000183
C    12.11999989   3.38000011  54.02000046
C    10.75000000   3.60000014  53.73000336
C     9.75000000   3.17000008  54.65999985
C     8.43000031   3.45000005  54.43999863
C     7.96999979   3.98999977  53.20000076
C     8.89999962   4.40000010  52.28000259
C    10.27999973   4.15999985  52.50000000
C    14.48999977   3.95000005  53.33000183
C    15.10000038   4.65000010  52.25999832
C    16.42000008   5.07999992  52.29000092
C     6.50000000   4.11000013  52.88000107
H     6.12351894   3.65538096  51.96365738
H    11.13000011   5.21000004  50.73999786
H    12.51000023   3.02999997  54.97000122
H    10.06000042   2.66999984  55.56999969
H     7.75000000   3.17999983  55.25000000
H     8.57999992   4.98000002  51.40999603
H    16.94000053   5.46000004  51.42000198
H     5.86999989   3.84000015  53.74000168
H     6.28000021   5.18000031  52.94000244
S    17.77000046   3.56999993  55.72000122
C    20.45999908   4.15000010  55.01999664
C    19.11000061   4.23000002  54.77000427
C    18.61999893   4.80999994  53.55999756
C    19.50000000   5.26999998  52.60000229
C    20.88999939   5.15999985  52.80000305
C    21.84999847   5.58000040  51.84000015
C    23.19999886   5.51000023  52.09999847
C    23.67000198   5.01999950  53.34000015
C    22.79000092   4.55000019  54.29000092
C    21.38999939   4.65000010  54.06000137
C    17.17000008   4.76000023  53.43000031
C    16.56999969   4.01999998  54.47999954
C    15.22999954   3.67000008  54.48999786
C    25.15000153   4.81999969  53.55999756
H    25.45462227   5.05377769  54.58012390
H    20.88000107   3.51000023  55.79000092
H    19.20999908   5.56999969  51.59000015
H    21.40000153   5.86000013  50.89000320
H    23.90000153   5.82999992  51.32999802
H    23.12999916   4.00000000  55.15999603
H    14.88000011   3.16000009  55.38000107
H    25.72000122   5.32999992  52.77000046
H    25.45000076   3.77999997  53.41999817
