96

S    16.72000122   8.47000027  58.72000122
C    19.42000008   8.39999962  58.18999863
C    18.15000153   8.14000034  57.70999908
C    17.79999924   7.69999981  56.39999771
C    18.79999924   7.57999992  55.44000244
C    20.13000107   7.76000023  55.87999725
C    21.21000099   7.62000036  54.95999908
C    22.50000000   7.92000008  55.33000183
C    22.78000069   8.40999985  56.63000107
C    21.75000000   8.65999985  57.50999832
C    20.43000031   8.23999977  57.21000290
C    16.36000061   7.55999994  56.24000168
C    15.64000034   7.97999954  57.38999939
C    14.27999973   8.18000031  57.52999878
C    24.18999863   8.78000069  57.01000214
H    24.71571922   8.01273251  57.57834625
H    19.55999947   8.90999985  59.13000107
H    18.67000008   7.36000013  54.38999939
H    20.90999985   7.30000019  53.95999908
H    23.35000038   7.79999971  54.68000031
H    21.94000053   9.11999989  58.47999954
H    13.81000042   8.63000011  58.40000153
H    24.79999924   9.06999969  56.13999939
H    24.13000107   9.76000023  57.51999664
S    13.07999992   7.37999964  53.82999802
C    10.40999985   7.17999983  54.68999863
C    11.72000027   7.55000019  54.94999695
C    12.13999939   7.86999989  56.27999878
C    11.18000031   8.01999950  57.25999832
C     9.81999969   7.73000002  56.97999954
C     8.76000023   8.02999973  57.88000107
C     7.42999983   7.90999985  57.54000092
C     7.09999990   7.23000002  56.32999802
C     8.09000015   6.74000025  55.52000046
C     9.43000031   7.17999983  55.70999908
C    13.60000038   7.90999985  56.32999802
C    14.26000023   7.50999975  55.14999771
C    15.64000034   7.40999985  55.05000305
C     5.71000004   6.78999996  55.96000290
H     5.27483988   7.36070156  55.13961411
H    10.08999920   6.85999966  53.69999695
H    11.52999973   8.19000053  58.27000046
H     9.07999992   8.47999954  58.81000137
H     6.72999954   8.22000027  58.29999924
H     7.85000038   6.23000050  54.59000015
H    16.07999992   7.30000019  54.06999969
H     5.09999990   6.84000015  56.86999893
H     5.78000021   5.73999977  55.63000107
S    17.25000000   8.73999977  52.52999878
C    19.98999977   8.89999962  51.93999863
C    18.70000076   8.76000023  51.50000000
C    18.35000038   8.34999943  50.17000198
C    19.38999939   8.25000000  49.27000046
C    20.75000000   8.46000004  49.62999725
C    21.80000114   8.38999939  48.68000031
C    23.09999847   8.65999985  49.02000046
C    23.36999893   9.19000053  50.31000137
C    22.37999916   9.25000000  51.25999832
C    21.02000046   8.93000031  50.96000290
C    16.90999985   8.26000023  50.00999832
C    16.13000107   8.56000042  51.16000366
C    14.75999928   8.73000050  51.13999939
C    24.75000000   9.64999962  50.70000076
H    25.23096466   9.01342964  51.44266510
H    20.13999939   9.04999924  53.00000000
H    19.27999878   7.90999985  48.23999786
H    21.50000000   8.23000050  47.64999771
H    23.90999985   8.48999977  48.30999756
H    22.53999901   9.56999969  52.29000092
H    14.19999981   8.97000027  52.04000092
H    25.38999939   9.59999943  49.80999756
H    24.72999954  10.69000053  51.04000092
S    13.69999981   7.59000015  47.52999878
C    10.98000050   7.35000038  48.34999847
C    12.25000000   7.83999968  48.53000259
C    12.64999962   8.45000076  49.77000427
C    11.69000053   8.63000011  50.75000000
C    10.36000061   8.19000053  50.54999924
C     9.34000015   8.40999985  51.52000046
C     8.00000000   8.19999981  51.32999802
C     7.62000036   7.67000008  50.06999969
C     8.56999969   7.34000015  49.13000107
C     9.96999931   7.51999950  49.33000183
C    14.09000015   8.51000023  49.93000031
C    14.84000015   8.14999962  48.76999664
C    16.21999931   8.05000019  48.80000305
C     6.17999983   7.36000013  49.72000122
H     5.82351732   7.83768702  48.80740356
H    10.67000008   7.04999971  47.35000229
H    12.02000046   8.97000027  51.72000122
H     9.76000023   8.80000019  52.43999863
H     7.18999958   8.40999985  52.02999878
H     8.28999996   6.96000004  48.15999985
H    16.70999908   7.83999968  47.85999680
H     5.42999983   7.53999996  50.51000214
H     6.09000015   6.25999975  49.72000122
