96

S    16.72999954   8.34999943  58.74000168
C    19.42000008   8.67000008  57.91999817
C    18.13999939   8.23999977  57.65999603
C    17.76000023   7.78999996  56.36000061
C    18.70000076   7.72000027  55.34999847
C    20.03000069   8.11999989  55.59999847
C    21.04999924   7.77999973  54.66999817
C    22.34999847   8.21000004  54.78000259
C    22.72000122   8.71999931  56.04999924
C    21.78999901   8.88000011  57.04999924
C    20.39999962   8.63000011  56.90000153
C    16.31999969   7.59000015  56.19999695
C    15.65000057   7.92000008  57.39999771
C    14.27000046   7.99000025  57.51999664
C    24.13999939   9.06000042  56.45000076
H    24.62210274   8.36520672  57.13770676
H    19.63000107   9.09000015  58.89999771
H    18.52000046   7.11999989  54.45999908
H    20.75000000   7.39000034  53.69999695
H    23.13999939   8.01999950  54.03999710
H    22.17000008   9.23999977  58.00000000
H    13.71000099   8.31999969  58.40000153
H    24.79999924   9.13999939  55.56999969
H    24.23000145  10.06000042  56.88999939
S    13.03999996   7.35000038  53.83999634
C    10.40999985   6.91999960  54.59999847
C    11.65999985   7.36000013  54.94999695
C    12.02999973   7.68000031  56.30000305
C    11.03000069   7.77999973  57.25000000
C     9.68999958   7.67000008  56.79999924
C     8.61999989   7.95000029  57.69000244
C     7.31999969   7.69000006  57.31999969
C     6.97000027   7.11999989  56.05999756
C     7.97999954   6.93000031  55.14999771
C     9.35000038   7.11999989  55.51000214
C    13.48000050   7.76000023  56.38999939
C    14.19000053   7.53000021  55.18000031
C    15.57000065   7.39000034  55.04000092
C     5.55000019   6.67000008  55.79999924
H     5.09421825   7.24684954  54.99525833
H    10.17000008   6.61000013  53.57999802
H    11.39000034   8.03999996  58.23999786
H     8.84000015   8.30999947  58.68999863
H     6.61000013   7.73000002  58.13999939
H     7.68000031   6.63000011  54.15000153
H    16.14999962   7.11999989  54.15999985
H     4.90000010   6.50000000  56.66999817
H     5.72000027   5.66999960  55.37000275
S    17.28000069   8.90999985  52.64999771
C    20.00999832   9.26999950  51.93999863
C    18.72999954   8.85000038  51.63999939
C    18.40999985   8.36999989  50.33000183
C    19.44000053   8.05999947  49.45999908
C    20.75000000   8.47999954  49.79999924
C    21.80999947   8.39999962  48.86000061
C    23.11000061   8.69999981  49.20000076
C    23.36999893   9.31999969  50.45000076
C    22.39000130   9.61000061  51.37000275
C    21.07000160   9.19999981  51.00000000
C    16.97999954   8.36999989  50.11000061
C    16.21000099   8.75000000  51.24000168
C    14.81999969   8.88000011  51.25000000
C    24.84000015   9.53999996  50.75000000
H    25.31027603   8.95571709  51.54092026
H    20.28000069   9.44000053  52.97999954
H    19.34999847   7.64999962  48.46000290
H    21.51000023   8.14999962  47.84000015
H    23.85999870   8.43000031  48.47000122
H    22.57999802   9.89000034  52.39999771
H    14.23999977   9.15000057  52.11999893
H    25.43999863   9.39000034  49.84000397
H    24.90999985  10.59999943  51.04999924
S    13.80000019   7.77999973  47.62000275
C    11.03999996   7.68000031  48.22000122
C    12.32999992   7.97999954  48.60000229
C    12.69000053   8.36000061  49.93000031
C    11.65999985   8.43000031  50.84999847
C    10.34000015   8.10000038  50.47000122
C     9.35000038   8.23999977  51.47999573
C     8.03999996   7.95000029  51.16000366
C     7.67000008   7.57000017  49.85000229
C     8.57999992   7.59000015  48.81999969
C     9.94999981   7.85000038  49.09999847
C    14.13000011   8.50000000  50.08999634
C    14.89999962   8.03999996  48.99000168
C    16.28999901   7.99000025  48.95000076
C     6.25999975   7.07000017  49.61999893
H     5.69107294   7.52514172  48.80927658
H    10.90000057   7.34000015  47.18999863
H    11.87000084   8.55000019  51.90999985
H     9.72999954   8.55000019  52.44999695
H     7.21000004   7.94000053  51.86999893
H     8.23000050   7.32999992  47.81999969
H    16.81999969   7.71000004  48.04999924
H     5.80999947   7.09000015  50.61999893
H     6.39999962   6.00000000  49.40999985
