96

S    16.64999962   8.51000023  58.77999878
C    19.36000061   8.43000031  58.15999985
C    18.06999969   8.17000008  57.77000046
C    17.71000099   7.76999998  56.44000244
C    18.70000076   7.59999990  55.48999786
C    20.03999901   7.85000038  55.86999893
C    21.09999847   7.59000015  54.95999908
C    22.39999962   7.79999971  55.34999847
C    22.72999954   8.46000004  56.56999969
C    21.71999931   8.73000050  57.47000122
C    20.38999939   8.30000019  57.18999863
C    16.27000046   7.86000013  56.22000122
C    15.57999992   8.27999973  57.38999939
C    14.19999981   8.34999943  57.47000122
C    24.13000107   8.97999954  56.79999924
H    24.61827469   8.47757339  57.63501740
H    19.61000061   8.88000011  59.10999680
H    18.53000069   7.09999990  54.54999924
H    20.86000061   7.14999962  54.00000000
H    23.21000099   7.69000006  54.64000320
H    21.80999947   9.15999985  58.46000290
H    13.71000099   8.56999969  58.40999985
H    24.87999916   8.89000034  56.00999832
H    23.95999908  10.03999901  57.00000000
S    13.10999966   7.00000000  53.83999634
C    10.47999954   6.60000038  54.65000153
C    11.72000027   7.09999990  54.94999695
C    12.02000046   7.69999981  56.20999908
C    10.98000050   8.05000019  57.04000092
C     9.67000008   7.59000015  56.77999878
C     8.53999996   7.77999973  57.63000107
C     7.27999973   7.36999989  57.27000427
C     7.07999992   6.76999998  55.98999786
C     8.11999989   6.46000004  55.14999771
C     9.42000008   6.85999966  55.56000137
C    13.45999908   7.90999985  56.37000275
C    14.14000034   7.55000019  55.18000031
C    15.52000046   7.53999996  55.07999802
C     5.64000034   6.48000002  55.66999817
H     5.24662066   7.12371159  54.88323975
H    10.31999969   6.09000015  53.70999908
H    11.18999958   8.56999969  57.97999954
H     8.76999950   8.18000031  58.61000061
H     6.48000002   7.50000000  58.00000000
H     7.92000008   6.05999994  54.15999985
H    16.03000069   7.23999977  54.16999817
H     5.12000036   6.39999962  56.63999939
H     5.63000011   5.46999979  55.25000000
S    13.94000053   5.05999994  50.93999863
C    11.28000069   4.32000017  51.63000107
C    12.61999989   4.40000010  51.93000031
C    13.07000065   3.81999993  53.15999985
C    12.23000050   3.22000003  54.08000183
C    10.82999992   3.28000021  53.88000107
C     9.81999969   2.84999990  54.79000092
C     8.47999954   2.99000001  54.51000214
C     8.09000015   3.45000005  53.22000122
C     9.00000000   3.97000027  52.32999802
C    10.39000034   3.81999993  52.62000275
C    14.48999977   4.05999994  53.34000015
C    15.11000061   4.65999985  52.22000122
C    16.46999931   4.94000006  52.28000259
C     6.61999989   3.75999975  53.04999924
H     6.14199543   3.20351696  52.24381256
H    10.71000004   4.84000015  50.86999893
H    12.58999920   2.75999999  54.99000168
H    10.14000034   2.47000003  55.76000214
H     7.69000006   2.73000002  55.20000076
H     8.63000011   4.51999998  51.46999741
H    16.93000031   5.42999983  51.43000031
H     6.12999964   3.52999973  54.00000000
H     6.61000013   4.84000015  52.84000015
S    17.85000038   3.48000002  55.68000031
C    20.55000114   3.75000000  54.85000229
C    19.19999886   3.93000007  54.61999893
C    18.75000000   4.61000013  53.44999695
C    19.68000031   5.07000017  52.52999878
C    21.05999947   5.03000021  52.83000183
C    22.04999924   5.51000023  51.91999817
C    23.39999962   5.36999989  52.11000061
C    23.81999969   4.74000025  53.30999756
C    22.93000031   4.28000021  54.25000000
C    21.52000046   4.36999989  54.02999878
C    17.29999924   4.51999998  53.31999969
C    16.65999985   3.94000006  54.43999863
C    15.29000092   3.68999982  54.43000031
C    25.27000046   4.76999998  53.74000168
H    25.61163902   4.16501284  54.57986832
H    20.89999962   3.10999990  55.65999985
H    19.38999939   5.45000029  51.56000137
H    21.76000214   6.11000013  51.05999756
H    24.11999893   5.77000046  51.39999771
H    23.38000107   3.86999989  55.14999771
H    14.84000015   2.99000001  55.13999939
H    25.48999977   5.79999971  54.02000046
H    25.82999992   4.55999994  52.81999969
