96

S    16.73999977   8.67999935  58.82999802
C    19.40999985   8.80999947  58.15000153
C    18.15000153   8.43999958  57.77000046
C    17.79000092   8.01999950  56.45000076
C    18.78999901   7.85000038  55.51000214
C    20.12000084   8.14000034  55.89000320
C    21.18000031   7.99000025  54.93999863
C    22.42000198   8.47000027  55.27000046
C    22.77000046   8.93999958  56.56000137
C    21.76000214   9.11999989  57.48000336
C    20.43999863   8.67999935  57.18000031
C    16.34000015   7.96999979  56.31000137
C    15.64000034   8.34999943  57.48000336
C    14.25000000   8.43000031  57.55000305
C    24.20999908   9.26999950  56.90000153
H    24.71512794   8.58701038  57.58298874
H    19.59000015   9.34000015  59.09000015
H    18.55999947   7.53000021  54.50000000
H    20.96999931   7.65999985  53.93000031
H    23.25000000   8.39999962  54.56999969
H    21.94999886   9.63000011  58.41999817
H    13.76000023   8.60000038  58.50000000
H    24.68000031   9.23999977  55.90999985
H    24.15999985  10.26999950  57.32999802
S    13.19000053   7.04999971  53.96999741
C    10.51000023   6.77999973  54.75999832
C    11.75000000   7.36000013  54.93999863
C    12.10999966   8.01999950  56.16000366
C    11.10999966   8.11999989  57.11000061
C     9.76000023   7.86999989  56.77999878
C     8.71000004   8.03999996  57.74000168
C     7.46000004   7.59999990  57.38999939
C     7.11000013   6.98000002  56.16000366
C     8.10999966   6.67999983  55.26000214
C     9.42000008   7.11999989  55.59999847
C    13.53999996   8.21000004  56.37000275
C    14.22999954   7.77999973  55.20000076
C    15.60999966   7.65999985  55.15999603
C     5.69000006   6.58999968  55.80999756
H     5.16213322   7.28193331  55.15373230
H    10.42000008   6.05000019  53.95999908
H    11.36000061   8.40999985  58.13000107
H     8.97000027   8.36999989  58.74000168
H     6.63999987   7.81000042  58.06999969
H     7.88000011   6.19000006  54.31999969
H    16.18999863   7.28999996  54.31000137
H     5.12000036   6.51000023  56.73999786
H     5.78000021   5.61999989  55.30000305
S    13.56999969   4.92999983  51.12999725
C    10.95999908   4.30000019  51.84999847
C    12.30000019   4.19999981  52.14000320
C    12.84000015   3.65000010  53.34000015
C    11.92000008   3.31999993  54.31999969
C    10.52999973   3.32999992  54.10999680
C     9.52000046   2.89999986  55.02999878
C     8.18000031   3.05000019  54.77000427
C     7.73000002   3.56999993  53.53000259
C     8.67000008   3.84999990  52.56999969
C    10.06999969   3.81000018  52.84000015
C    14.27000046   3.88000011  53.47000122
C    14.78999996   4.59999990  52.36999893
C    16.13000107   4.96000004  52.31999969
C     6.26999950   3.84000015  53.25000000
H     5.91451931   3.39920378  52.31863785
H    10.65999985   4.67000008  50.86999893
H    12.35999966   2.87999988  55.21999741
H     9.85000038   2.89999986  56.05999756
H     7.55000019   2.99000001  55.65999985
H     8.50000000   4.19000006  51.55000305
H    16.61000061   5.53999996  51.52999878
H     5.73000002   3.38000011  54.09000015
H     6.00000000   4.90000010  53.09999847
S    17.59000015   3.78999996  55.81999969
C    20.22999954   4.32999992  55.00000000
C    18.88000107   4.40000010  54.75999832
C    18.39999962   4.88000011  53.50000000
C    19.34000015   5.35000038  52.60000229
C    20.72999954   5.26999998  52.81000137
C    21.71999931   5.69000006  51.88000107
C    23.05000114   5.84000015  52.19999695
C    23.50000000   5.40000010  53.47999954
C    22.60999870   4.80999994  54.34000015
C    21.21000099   4.79999971  54.09000015
C    16.95999908   4.67999983  53.40999985
C    16.36999893   4.09999990  54.56999969
C    15.06000042   3.65000010  54.61000061
C    24.86000061   5.75999975  54.02999878
H    25.28752518   5.04745865  54.73541260
H    20.58000183   3.94000006  55.94999695
H    19.03000069   5.73999977  51.63000107
H    21.30000114   6.14000034  50.98999786
H    23.64999962   6.19000006  51.37000275
H    23.03999901   4.41000032  55.26000214
H    14.70999908   3.10999990  55.47999954
H    24.70999908   6.72999954  54.52000046
H    25.63999939   5.79999971  53.26000214
