96

S    12.30999947  16.90000153  44.06000137
C     9.63999939  17.57999992  44.82999802
C    10.85000038  16.97999954  45.14999771
C    11.19999981  16.64999962  46.47999573
C    10.29000092  16.82999992  47.48000336
C     8.96000004  17.22999954  47.22000122
C     7.86000013  17.14999962  48.11000061
C     6.54999971  17.43999863  47.80000305
C     6.21999979  17.93000031  46.52999878
C     7.27999973  18.04000092  45.63999939
C     8.63000011  17.65999985  45.89000320
C    12.64000034  16.62999916  46.66999817
C    13.36999989  16.69999886  45.45999908
C    14.72000027  16.73999977  45.47000122
C     4.77999973  18.11000061  46.12999725
H     4.48300171  17.52324677  45.26073837
H     9.26000023  17.85000038  43.85000229
H    10.36000061  16.55999947  48.53000259
H     7.96999979  16.80999947  49.13999939
H     5.82000017  17.20999908  48.56999969
H     7.00000000  18.20999908  44.61000061
H    15.31999969  17.15999985  44.66999817
H     4.13999987  17.72999954  46.93000031
H     4.55000019  19.17000008  45.96000290
S    15.72999954  15.93999958  49.26000214
C    18.35000038  15.25000000  48.48999786
C    17.12000084  15.88999939  48.16999817
C    16.86000061  16.26000023  46.79000092
C    17.82999992  16.10000038  45.86000061
C    19.07999992  15.62999916  46.25000000
C    20.10999870  15.65000057  45.31999969
C    21.42000008  15.25000000  45.61999893
C    21.71999931  14.75000000  46.90999985
C    20.75000000  14.73999977  47.87000275
C    19.42000008  15.19000053  47.56000137
C    15.46000004  16.51000023  46.60999680
C    14.75999928  16.44000053  47.85999680
C    13.31999969  16.50000000  47.85999680
C    23.13999939  14.37999916  47.22999954
H    23.44167328  14.86842346  48.15657043
H    18.45000076  14.63999939  49.38000107
H    17.70000076  16.31999969  44.79999924
H    19.82999992  16.17000008  44.40999985
H    22.13999939  15.29000092  44.80999756
H    21.04000092  14.19999981  48.76999664
H    12.81999969  16.32999992  48.81000137
H    23.78000069  14.77000046  46.43000031
H    23.29999924  13.30000019  47.22999954
S    15.90999985  12.96000004  52.22000122
C    18.60999870  12.36999989  51.47999573
C    17.28999901  12.56000042  51.16000366
C    16.90999985  12.38999939  49.79000092
C    17.75000000  11.89000034  48.77999878
C    19.10000038  11.72000027  49.13000107
C    19.97999954  11.18000031  48.13999939
C    21.31999969  11.00000000  48.50999832
C    21.78999901  11.39000034  49.84000397
C    20.94000053  11.90999985  50.72000122
C    19.54000092  12.05999947  50.43000031
C    15.50000000  12.76000023  49.69999695
C    14.85999966  13.14000034  50.89000320
C    13.53999996  13.34000015  50.98999786
C    23.21000099  11.02000046  50.13000107
H    23.53072548  11.31934452  51.12781143
H    19.04000092  12.39999962  52.48000336
H    17.56999969  11.59999943  47.75000000
H    19.55999947  10.93000031  47.15999985
H    22.04000092  10.43000031  47.93000031
H    21.18999863  12.10999966  51.76000214
H    13.07000065  13.63000011  51.93000031
H    23.26000023   9.92000008  50.12000275
H    23.85000038  11.43000031  49.33000183
S    12.20000076  12.60000038  47.32999802
C     9.52000046  12.88000011  48.20000076
C    10.85000038  13.00000000  48.43999863
C    11.39000034  13.43000031  49.69999695
C    10.47000027  13.76000023  50.66999817
C     9.10000038  13.81999969  50.41999817
C     8.15999985  14.34999943  51.33999634
C     6.86999989  14.57999992  51.03000259
C     6.42000008  14.25000000  49.75000000
C     7.27999973  13.66000080  48.85000229
C     8.60999966  13.43999958  49.13999939
C    12.76999950  13.32999992  49.82999802
C    13.38999939  13.01000023  48.61000061
C    14.72000027  12.69999981  48.55999756
C     5.01999950  14.47999954  49.33000183
H     4.77741289  14.11979580  48.33024979
H     9.25000000  12.72999954  47.15000153
H    10.78999996  14.01000023  51.68000031
H     8.55000019  14.55000019  52.34000397
H     6.10000038  14.89999962  51.72000122
H     6.93000031  13.40000057  47.84999847
H    15.06000042  12.48000050  47.56000137
H     4.69999981  15.50000000  49.56999969
H     4.56999969  13.78000069  50.05000305
