96

S    11.85999966  16.56999969  44.08000183
C     9.31999969  17.11000061  44.98000336
C    10.54999924  16.60000038  45.31000137
C    10.92000008  16.10000038  46.56000137
C     9.94000053  16.01000023  47.52999878
C     8.57999992  16.45000076  47.25999832
C     7.59999990  16.42000008  48.30999756
C     6.34000015  16.77000046  48.02000046
C     5.98000002  17.20999908  46.73999786
C     6.94000006  17.38999939  45.77000046
C     8.28999996  17.01000023  45.97000122
C    12.30000019  15.95999908  46.63999939
C    12.94999981  16.18000031  45.40999985
C    14.34999943  16.22999954  45.27000046
C     4.51000023  17.65999985  46.52000046
H     4.24054384  17.48981667  45.47763062
H     9.01000023  17.38999939  43.96999741
H    10.18000031  15.80000019  48.56999969
H     7.86000013  16.18000031  49.34000015
H     5.65999985  16.95000076  48.85000229
H     6.58999968  17.79000092  44.82999802
H    14.68999958  16.65999985  44.33000183
H     3.96000004  17.07999992  47.28000259
H     4.32999992  18.71000099  46.75000000
S    15.51000023  15.26000023  48.96999741
C    18.15000153  14.98999977  48.22999954
C    16.90999985  15.32999992  47.91999817
C    16.54999924  15.81999969  46.56999969
C    17.56000137  15.92000008  45.65000153
C    18.93000031  15.50000000  45.96000290
C    20.00000000  15.55999947  45.04000092
C    21.28000069  15.24000072  45.34000015
C    21.53000069  14.82999992  46.72999954
C    20.51000214  14.68000031  47.60000229
C    19.22000122  15.06000042  47.30999756
C    15.14000034  15.95000076  46.38999939
C    14.44000053  15.62999916  47.61000061
C    13.02999973  15.70000076  47.76000214
C    22.92000008  14.51000023  47.22999954
H    23.27358246  15.12523460  48.05738449
H    18.38999939  14.53999996  49.19000244
H    17.28999901  16.39000130  44.71000290
H    19.72999954  15.86999989  44.02999878
H    22.06000137  15.36999893  44.59000015
H    20.63999939  14.27000046  48.60000229
H    12.60000038  15.51000023  48.74000168
H    23.65999985  14.44000053  46.42000198
H    22.82999992  13.48000050  47.57999802
S    11.57999992  17.13999939  50.72000122
C     8.98999977  17.48999977  51.59999847
C    10.29000092  17.10000038  51.88000107
C    10.60999966  16.42000008  53.04999924
C     9.64999962  16.29999924  54.02000046
C     8.30999947  16.67000008  53.86000061
C     7.30000019  16.56999969  54.85000229
C     6.05999994  17.06999969  54.54000092
C     5.65999985  17.51000023  53.26000214
C     6.58999968  17.53000069  52.25000000
C     7.96000004  17.23999977  52.56000137
C    11.98999977  16.13999939  53.09000015
C    12.71000004  16.46999931  51.88999939
C    14.11000061  16.51000023  51.84000015
C     4.19000006  17.65999985  52.84000015
H     3.90381384  17.02323532  52.00290298
H     8.69000053  17.89999962  50.63999939
H     9.94000053  16.04999924  55.04000092
H     7.55000019  16.04999924  55.77000046
H     5.27999973  16.88999939  55.27000046
H     6.38999987  17.86000061  51.23000336
H    14.70000076  16.88999939  51.00999832
H     3.52999973  17.39999962  53.67000198
H     4.09000015  18.72999954  52.58999634
S    15.18000031  15.34000015  55.47999954
C    17.82999992  15.01000023  54.69999695
C    16.56999969  15.52000046  54.41999817
C    16.21999931  16.02000046  53.15999985
C    17.19000053  16.09000015  52.16999817
C    18.53999901  15.75000000  52.45999908
C    19.59000015  15.88000107  51.53999710
C    20.79000092  15.29999924  51.79999924
C    21.14000130  14.73999977  53.02999878
C    20.17999840  14.73999977  53.96999741
C    18.84000015  15.21999931  53.76999664
C    14.80999947  16.20000076  52.98999786
C    14.07999992  15.93000031  54.20000076
C    12.75000000  15.84000015  54.26000214
C    22.60999870  14.34999943  53.31999969
H    23.08980370  15.01325798  54.03970337
H    18.02999878  14.56999969  55.68000031
H    17.02999878  16.42000008  51.14999771
H    19.37999916  16.18999863  50.52000046
H    21.47999954  15.31999969  50.96000290
H    20.39999962  14.37000084  54.97000122
H    12.13999939  15.52000046  55.11000061
H    23.15999985  14.21000004  52.37999725
H    22.60999870  13.34000015  53.74000168
