96

S    12.22000027  17.01000023  44.41999817
C     9.64999962  17.54999924  45.30000305
C    10.85000038  17.02999878  45.56999969
C    11.18000031  16.46999931  46.84999847
C    10.19999981  16.50000000  47.81999969
C     8.88000011  17.00000000  47.54000092
C     7.76000023  16.90000153  48.39000320
C     6.50000000  17.36999893  48.13000107
C     6.21000004  17.89999962  46.83000183
C     7.26999998  17.89999962  45.91999817
C     8.61999989  17.52000046  46.27999878
C    12.56999969  16.17000008  46.90000153
C    13.22000027  16.46000099  45.72999954
C    14.63000107  16.64999962  45.66999817
C     4.84000015  18.31999969  46.49000168
H     4.49887562  17.58089828  45.76511383
H     9.48000050  17.97000122  44.31000137
H    10.43000031  16.28000069  48.86000061
H     7.83999968  16.56999969  49.43000031
H     5.75000000  17.38000107  48.90999603
H     7.09999990  18.29000092  44.91000366
H    15.24000072  16.80999947  44.79000092
H     4.11999989  18.38000107  47.31999969
H     4.86999989  19.29999924  46.00999832
S    15.65999985  15.38000011  49.27000046
C    18.34000015  15.22999954  48.55999756
C    17.02000046  15.59999943  48.25000000
C    16.69000053  16.07999992  46.95000076
C    17.70000076  16.18000031  46.02000427
C    19.03000069  15.84000015  46.38000107
C    20.17000008  15.95999908  45.44000244
C    21.47999954  15.62000084  45.70000076
C    21.76000214  15.21999931  46.97000122
C    20.79000092  15.21000004  47.95000076
C    19.40000153  15.47000027  47.65999603
C    15.27999973  16.39000130  46.81999969
C    14.56999969  16.04999924  48.02000046
C    13.17999935  15.88000107  48.11000061
C    23.13999939  14.78000069  47.25999832
H    23.44273186  14.99328899  48.28516388
H    18.54999924  14.65999985  49.45999908
H    17.46000099  16.40999985  44.98000336
H    19.93000031  16.31000137  44.43999863
H    22.27999878  15.64000034  44.95999908
H    21.14000130  14.86999989  48.92000198
H    12.50000000  15.72999954  48.94000244
H    23.81000137  15.14999962  46.47999573
H    23.19000053  13.69999981  47.06999969
S    11.68000031  17.29999924  51.00999832
C     9.04999924  17.53000069  51.70999908
C    10.31000042  17.05000114  52.02000046
C    10.62999916  16.61000061  53.30999756
C     9.61000061  16.39000130  54.22999954
C     8.30999947  16.92000008  54.02999878
C     7.26000023  16.95999908  54.98000336
C     6.05000019  17.56000137  54.65999985
C     5.66999960  17.92000008  53.41999817
C     6.65999985  17.98999977  52.39999771
C     7.96999979  17.52000046  52.74000168
C    12.05000019  16.57999992  53.56999969
C    12.71999931  16.95000076  52.36000061
C    14.11000061  16.95000076  52.29000092
C     4.28999996  18.40999985  53.20999908
H     3.87014818  17.94033432  52.32048416
H     8.78999996  17.94000053  50.73999786
H     9.84000015  16.03999901  55.24000168
H     7.44999981  16.47999954  55.93000031
H     5.26000023  17.64000130  55.40000153
H     6.46000004  18.32999992  51.38999939
H    14.53999996  16.94000053  51.29000092
H     3.65000010  18.22999954  54.09000015
H     4.46999979  19.48999977  53.11999893
S    15.29000092  15.72999954  55.84999847
C    17.86999893  15.29999924  55.02999878
C    16.64999962  15.88000107  54.79000092
C    16.31000137  16.46999931  53.50000000
C    17.26000023  16.52000046  52.58999634
C    18.53999901  15.98999977  52.80000305
C    19.59000015  16.01000023  51.81000137
C    20.85000038  15.52999973  52.14000320
C    21.09999847  14.80999947  53.33000183
C    20.17000008  14.80000019  54.33000183
C    18.86000061  15.32999992  54.03999710
C    14.85999966  16.65999985  53.41999817
C    14.25000000  16.31000137  54.61999893
C    12.86999893  16.26000023  54.68000031
C    22.47999954  14.27999973  53.68999863
H    22.86365700  14.89101028  54.50704956
H    17.94999886  14.68000031  55.91999817
H    17.02000046  16.81999969  51.56999969
H    19.31999969  16.45000076  50.84999847
H    21.56999969  15.77999973  51.36000061
H    20.19000053  14.30999947  55.28999710
H    12.46999931  16.11999893  55.68000031
H    23.12999916  14.40000057  52.81999969
H    22.29000092  13.22999954  53.94000244
