96

S    12.28999996  16.67000008  44.15000153
C     9.63000011  17.04000092  44.87999725
C    10.88999939  16.63999939  45.19000244
C    11.25000000  16.35000038  46.52999878
C    10.29000092  16.32999992  47.51999664
C     8.98999977  16.75000000  47.22999954
C     7.86999989  16.52000046  48.06999969
C     6.63999987  16.98999977  47.70999908
C     6.37000036  17.56000137  46.47999573
C     7.35000038  17.56999969  45.56000137
C     8.65999985  17.12000084  45.86999893
C    12.68000031  16.01000023  46.66999817
C    13.30000019  16.22999954  45.43000031
C    14.72000027  16.31000137  45.34999847
C     4.90999985  17.95999908  46.16000366
H     4.54202461  17.34670830  45.33746719
H     9.32999992  17.20999908  43.85000229
H    10.50000000  15.82999992  48.46000290
H     7.97999954  15.81999969  48.88999939
H     5.78000021  16.77999878  48.34999847
H     7.03999996  17.84000015  44.55999756
H    15.29000092  16.51000023  44.45000076
H     4.26999998  17.90999985  47.04000092
H     4.85000038  19.03000069  45.93000031
S    15.88999939  15.82999992  49.13000107
C    18.51000023  15.24000072  48.41999817
C    17.23999977  15.65000057  48.04999924
C    16.87000084  15.85999966  46.69000244
C    17.92000008  15.88000107  45.72000122
C    19.19999886  15.50000000  46.05999756
C    20.26000023  15.55999947  45.06999969
C    21.53000069  15.25000000  45.50000000
C    21.80999947  14.78999996  46.84999847
C    20.81000137  14.78999996  47.78999710
C    19.52999878  15.17000008  47.42000198
C    15.47000027  16.10000038  46.52999878
C    14.72000027  15.95000076  47.74000168
C    13.34000015  15.86999989  47.85999680
C    23.22000122  14.55999947  47.25999832
H    23.42486382  15.00631046  48.23310471
H    18.77000046  14.98999977  49.43999863
H    17.79000092  16.21999931  44.69999695
H    20.00000000  16.02000046  44.12000275
H    22.32000160  15.38000011  44.77000427
H    20.97999954  14.67000008  48.85000229
H    12.88000011  15.71000004  48.82999802
H    24.00000000  14.93000031  46.58000183
H    23.31999969  13.47000027  47.25999832
S    15.77000046  13.12999916  52.08000183
C    18.40999985  12.38000011  51.40999603
C    17.10000038  12.56000042  51.04000092
C    16.57999992  12.25999928  49.68000031
C    17.48999977  11.77000046  48.80000305
C    18.88000107  11.75000000  49.05000305
C    19.78000069  11.19999981  48.09999847
C    21.12999916  11.23999977  48.22999954
C    21.60000038  11.49000072  49.59000015
C    20.73999786  11.82999992  50.59000015
C    19.34999847  12.00000000  50.34999847
C    15.14000034  12.43999958  49.54999924
C    14.60999966  12.93000031  50.72000122
C    13.31999969  13.30000019  50.79999924
C    23.03999901  11.26000023  49.89999771
H    23.38878059  11.66349220  50.85060120
H    18.70000076  12.64999962  52.42000198
H    17.13000107  11.32999992  47.87000275
H    19.43000031  10.86999989  47.11999893
H    21.91999817  11.05000019  47.50999832
H    20.95999908  11.82000065  51.65000153
H    12.97000027  13.64999962  51.76000214
H    23.19999886  10.18000031  49.93000031
H    23.54999924  11.72999954  49.03999710
S    11.80999947  12.25999928  47.18999863
C     9.21000004  12.69000053  47.98999786
C    10.52000046  12.77999973  48.29000092
C    10.98999977  13.20000076  49.59000015
C    10.01999950  13.40000057  50.61999893
C     8.65999985  13.43000031  50.33000183
C     7.64999962  13.86999989  51.22000122
C     6.30000019  13.89999962  50.90999985
C     5.92000008  13.40000057  49.61000061
C     6.86999989  12.98999977  48.69999695
C     8.27999973  13.03999996  49.00000000
C    12.43999958  13.09999943  49.72000122
C    13.01000023  12.56999969  48.48999786
C    14.32999992  12.25999928  48.44999695
C     4.55000019  13.76999950  49.06999969
H     4.36794853  13.28938389  48.10876846
H     8.92000008  12.31999969  47.01000214
H    10.34000015  13.73999977  51.59999847
H     7.92999983  14.29999924  52.18000031
H     5.59999990  14.29999924  51.63999939
H     6.56000042  12.72999954  47.69000244
H    14.80000019  11.92000008  47.52999878
H     4.46000004  14.85999966  48.96999741
H     3.78999996  13.38000107  49.75999832
