96

S    12.28999996  16.72999954  44.26000214
C     9.68999958  17.12000084  45.06999969
C    10.95000076  16.64999962  45.34000015
C    11.23000050  16.20000076  46.65999985
C    10.29999924  16.23999977  47.64999771
C     8.93999958  16.72000122  47.37999725
C     7.85000038  16.70999908  48.27000046
C     6.57999992  17.21999931  47.90999985
C     6.28999996  17.67000008  46.58000183
C     7.31999969  17.69000053  45.66999817
C     8.67999935  17.21999931  46.07999802
C    12.64999962  16.00000000  46.75000000
C    13.35999966  16.13999939  45.50000000
C    14.70000076  16.03000069  45.45999908
C     4.84000015  18.00000000  46.16000366
H     4.58928061  17.60020447  45.17745590
H     9.55000019  17.46999931  44.06000137
H    10.51000023  15.77999973  48.61000061
H     7.94000053  16.23999977  49.25000000
H     5.77000046  17.22999954  48.63999939
H     7.13999987  17.94000053  44.62999725
H    15.21999931  16.27000046  44.54000092
H     4.15999985  17.67000008  46.95999908
H     4.76999998  19.09000015  46.18000031
S    15.75000000  15.64000034  49.29000092
C    18.51000023  15.21999931  48.61000061
C    17.22999954  15.52000046  48.25000000
C    16.86000061  15.62999916  46.86999893
C    17.82999992  15.67000008  45.87999725
C    19.19999886  15.47000027  46.20999908
C    20.23999977  15.44000053  45.26000214
C    21.47999954  15.01999950  45.65999985
C    21.77999878  14.77000046  47.04000092
C    20.78000069  14.75000000  47.91999817
C    19.48999977  15.14000034  47.58999634
C    15.43000031  15.70000076  46.65999985
C    14.73999977  15.67999935  47.90999985
C    13.34000015  15.77000046  47.98999786
C    23.13999939  14.34000015  47.43000031
H    23.46890068  14.92630386  48.28800583
H    18.65999985  14.77000046  49.59000015
H    17.64000130  15.85999966  44.82999802
H    20.06999969  15.72999954  44.22999954
H    22.20999908  14.85999966  44.86999893
H    20.88999939  14.32999992  48.92000198
H    12.76999950  15.75000000  48.90999603
H    23.81999969  14.42999935  46.56000137
H    23.05000114  13.27999973  47.69000244
S    16.02000046  12.96000004  51.88000107
C    18.60000038  12.36999989  51.06999969
C    17.22999954  12.28999996  50.83000183
C    16.72000122  11.80999947  49.58000183
C    17.65999985  11.31000042  48.70999908
C    19.06999969  11.44999981  48.90999603
C    20.10999870  11.10999966  47.97999954
C    21.42000008  11.13000011  48.36000061
C    21.83000183  11.57999992  49.64000320
C    20.94000053  11.94000053  50.52999878
C    19.52999878  11.94000053  50.13000107
C    15.29999924  12.05000019  49.47999954
C    14.80000019  12.75000000  50.59999847
C    13.48999977  13.12999916  50.75000000
C    23.29999924  11.38000011  50.06000137
H    23.58361816  11.63525772  51.08103180
H    19.12999916  12.88000011  51.86999893
H    17.38999939  10.82999992  47.77999878
H    19.88000107  10.71000004  46.98999786
H    22.11999893  10.54999924  47.76000214
H    21.12999916  12.23000050  51.56000137
H    13.12999916  13.56999969  51.68000031
H    23.54000092  10.31000042  50.00000000
H    23.95000076  11.90000057  49.34000015
S    11.76000023  11.90999985  47.32999802
C     9.21000004  12.38000011  48.22000122
C    10.57999992  12.56000042  48.48999786
C    11.10000038  13.17000008  49.64000320
C    10.17000008  13.75000000  50.61000061
C     8.82999992  13.59000015  50.38999939
C     7.95000029  14.15999985  51.31000137
C     6.60000038  14.17000008  51.05999756
C     6.06999969  13.67000008  49.79000092
C     6.97000027  13.10999966  48.88000107
C     8.34000015  12.98999977  49.19000244
C    12.57999992  12.94999981  49.64000320
C    13.07000065  12.30999947  48.46000290
C    14.42000008  11.87000084  48.36999893
C     4.63000011  14.01000023  49.38999939
H     4.47553873  13.80405140  48.33083725
H     8.73999977  12.10999966  47.28000259
H    10.51000023  14.25000000  51.51000214
H     8.34000015  14.70000076  52.15999985
H     6.00000000  14.73999977  51.77000046
H     6.61999989  12.65999985  47.95000076
H    14.88000011  11.36000061  47.52999878
H     4.46999979  15.06000042  49.64000320
H     3.89999986  13.45999908  50.00000000
