96

S    12.05000019  16.65999985  44.13000107
C     9.52999973  17.18000031  45.00999832
C    10.72999954  16.57999992  45.19000244
C    10.97000027  16.06999969  46.52000046
C    10.07999992  16.05999947  47.54000092
C     8.78000069  16.62999916  47.28000259
C     7.78999996  16.69000053  48.29999924
C     6.65999985  17.32999992  47.98999786
C     6.32000017  17.78000069  46.66999817
C     7.25000000  17.64000130  45.66999817
C     8.48999977  17.12000084  45.97999954
C    12.38000011  15.88999939  46.65999985
C    13.09999943  16.17000008  45.45999908
C    14.48999977  16.28999901  45.41999817
C     4.88000011  18.09000015  46.33999634
H     4.52018452  17.65257645  45.40871048
H     9.46000004  17.78000069  44.10999680
H    10.47999954  15.65999985  48.47000122
H     7.92999983  16.13000107  49.22000122
H     5.82999992  17.40999985  48.69999695
H     7.00999975  18.06999969  44.69999695
H    15.00000000  16.39999962  44.45999908
H     4.23000002  17.77000046  47.16999817
H     4.75000000  19.18000031  46.31999969
S    15.46000004  15.25000000  49.12000275
C    18.22999954  14.78999996  48.47000122
C    16.97000122  15.26000023  48.11999893
C    16.69000053  15.76000023  46.76000214
C    17.70000076  15.69000053  45.80999756
C    19.02000046  15.32999992  46.17000198
C    19.96999931  15.31999969  45.11000061
C    21.24000168  14.89999962  45.38000107
C    21.57999992  14.51000023  46.69000244
C    20.62999916  14.55000019  47.70000076
C    19.22999954  14.88999939  47.50000000
C    15.24000072  16.03000069  46.60999680
C    14.51000023  15.71000004  47.78999710
C    13.12000084  15.65999985  47.81000137
C    22.95999908  14.23999977  47.11999893
H    23.29307938  14.78819275  48.00127411
H    18.43000031  14.37000084  49.45000076
H    17.56000137  15.90000057  44.75000000
H    19.70000076  15.77000046  44.15999985
H    22.04999924  15.13000011  44.68999863
H    20.81000137  14.18000031  48.70999908
H    12.56000042  15.47000027  48.72000122
H    23.69999886  14.42000008  46.33999634
H    23.13999939  13.17999935  47.35000229
S    11.72999954  16.98999977  50.87999725
C     8.98999977  17.28000069  51.55000305
C    10.24000072  16.90999985  51.90999985
C    10.55999947  16.50000000  53.20999908
C     9.57999992  16.35000038  54.18000031
C     8.25000000  16.72999954  53.86000061
C     7.14999962  16.72000122  54.78000259
C     5.97000027  17.39999962  54.51000214
C     5.69999981  17.84000015  53.18000031
C     6.65999985  17.78000069  52.22000122
C     7.92000008  17.20999908  52.52999878
C    12.01000023  16.36000061  53.30999756
C    12.79000092  16.61000061  52.23999786
C    14.14000034  16.46999931  52.16999817
C     4.30999994  18.51000023  52.81999969
H     3.94149709  17.99267960  51.93417358
H     8.80999947  17.65999985  50.54999924
H     9.90999985  16.01000023  55.15999603
H     7.22000027  16.09000015  55.65000153
H     5.27999973  17.52000046  55.33000183
H     6.43000031  18.27000046  51.27999878
H    14.70000076  16.53000069  51.24000168
H     3.51000023  18.45000076  53.57999802
H     4.44000006  19.57999992  52.62000275
S    15.07999992  15.44000053  55.79999924
C    17.79999924  15.11000061  55.04000092
C    16.53000069  15.47999954  54.72000122
C    16.21999931  15.88000107  53.34999847
C    17.19000053  16.06999969  52.38999939
C    18.52000046  15.59000015  52.71999741
C    19.60000038  15.72999954  51.81999969
C    20.88000107  15.39999962  52.19999695
C    21.14999962  14.93999958  53.46000290
C    20.19000053  14.85000038  54.43999863
C    18.82999992  15.17000008  54.09000015
C    14.80000019  16.09000015  53.29999924
C    14.07999992  15.93000031  54.47999954
C    12.71999931  15.98999977  54.45999908
C    22.57999802  14.59000015  53.87000275
H    22.96191406  15.26735592  54.63382721
H    18.02999878  14.70999908  56.02000427
H    16.90999985  16.57999992  51.46999741
H    19.40999985  16.06999969  50.80999756
H    21.63999939  15.53999996  51.44000244
H    20.40999985  14.65000057  55.48999786
H    12.23000050  15.85000038  55.41999817
H    23.11000061  14.65000057  52.90999985
H    22.56000137  13.55000019  54.22000122
