96

S    12.43999958  16.64999962  43.87000275
C     9.75000000  16.90000153  44.64000320
C    11.05000019  16.62999916  44.97000122
C    11.46000004  16.28999901  46.29000092
C    10.53999996  16.18999863  47.29999924
C     9.19999981  16.40999985  47.02000046
C     8.23999977  16.43000031  48.06999969
C     6.90999985  16.65999985  47.77999878
C     6.51000023  17.07999992  46.45999908
C     7.44000006  17.07999992  45.41999817
C     8.80999947  16.68000031  45.66999817
C    12.86000061  16.21999931  46.40999603
C    13.56999969  16.31999969  45.20999908
C    14.94999981  16.31000137  45.20000076
C     5.03999996  17.32999992  46.27999878
H     4.70177507  16.99177361  45.30055618
H     9.47000027  17.30999947  43.68000031
H    10.75000000  15.88000107  48.30999756
H     8.67000008  16.14999962  49.02999878
H     6.17000008  16.54000092  48.56999969
H     7.25000000  17.39999962  44.38999939
H    15.48999977  16.29999924  44.26000214
H     4.40000010  16.92000008  47.06999969
H     5.03999996  18.42000008  46.22000122
S    16.05999947  15.75000000  48.92000198
C    18.72999954  15.03000069  48.18999863
C    17.45000076  15.47000027  47.87000275
C    17.17000008  15.81999969  46.45999908
C    18.11000061  15.81999969  45.51000214
C    19.38999939  15.51000023  45.87999725
C    20.36999893  15.44000053  44.87999725
C    21.67000008  15.01000023  45.19000244
C    21.97999954  14.68999958  46.50000000
C    20.98999977  14.70000076  47.50000000
C    19.75000000  15.22999954  47.19999695
C    15.65999985  16.10999870  46.33999634
C    14.96000099  15.95999908  47.56999969
C    13.55000019  16.06999969  47.63999939
C    23.38999939  14.14000034  46.86999893
H    23.70733833  14.69710445  47.75149155
H    18.88000107  14.50000000  49.13000107
H    17.79000092  15.97000027  44.47999954
H    20.09000015  15.75000000  43.88000107
H    22.32000160  14.80000019  44.34999847
H    21.22999954  14.32000065  48.48999786
H    13.00000000  15.93999958  48.56999969
H    24.00000000  14.28999996  45.97999954
H    23.43000031  13.04999924  47.02000046
S    15.90999985  12.79000092  52.22999954
C    18.54999924  12.07999992  51.47999573
C    17.20000076  12.22000027  51.19999695
C    16.69000053  11.79999924  49.91000366
C    17.59000015  11.33999920  48.89999771
C    18.92000008  11.17000008  49.23999786
C    19.95000076  10.67999935  48.34999847
C    21.25000000  10.44999981  48.72000122
C    21.75000000  10.93999958  49.93999863
C    20.86000061  11.51999950  50.81999969
C    19.45999908  11.52999973  50.56999969
C    15.24000072  12.06999969  49.79000092
C    14.63999939  12.65999985  50.89000320
C    13.32999992  13.09000015  50.90999985
C    23.22000122  10.82999992  50.24000168
H    23.51965332  11.03690243  51.26737595
H    18.86999893  12.38999939  52.47000122
H    17.20999908  11.19999981  47.88999939
H    19.63999939  10.36999893  47.35000229
H    21.80000114   9.92999935  47.95000076
H    21.19999886  11.97999954  51.75000000
H    13.05999947  13.50000000  51.88000107
H    23.57000160   9.81000042  50.04000092
H    23.71999931  11.39000034  49.43000031
S    11.87999916  12.05000019  47.42000198
C     9.22999954  12.53999901  48.25000000
C    10.57999992  12.48000050  48.59000397
C    11.05999947  12.86999893  49.81999969
C    10.19000053  13.28999996  50.80999756
C     8.82000065  13.27999973  50.56000137
C     7.82999992  13.78999901  51.50000000
C     6.51000023  14.06999969  51.17000198
C     6.15999985  13.83999920  49.86999893
C     6.98000002  13.34000015  48.92000198
C     8.30000019  12.97999954  49.27999878
C    12.50000000  12.72999954  49.86999893
C    13.12000084  12.22000027  48.69999695
C    14.51000023  11.89000034  48.61000061
C     4.76999998  14.18000031  49.45999908
H     4.53625631  13.72667885  48.49668884
H     8.88000011  12.17000008  47.29000092
H    10.53999996  13.50000000  51.81999969
H     8.22000027  14.25000000  52.41000366
H     5.88000011  14.50000000  51.93999863
H     6.69000053  13.12999916  47.90000153
H    14.98000050  11.36000061  47.78999710
H     4.51000023  15.24000072  49.38999939
H     4.19000006  13.83999920  50.33000183
