96

S    12.09000015  16.95999908  43.93000031
C     9.39000034  17.32999992  44.69999695
C    10.65999985  16.86000061  44.97000122
C    10.98999977  16.45000076  46.29000092
C    10.06000042  16.46000099  47.29000092
C     8.69999981  16.79999924  46.97999954
C     7.67000008  16.94000053  47.98999786
C     6.44999981  17.47999954  47.72999573
C     6.14000034  17.79999924  46.43000031
C     7.07000017  17.71999931  45.43000031
C     8.38999939  17.28000069  45.68000031
C    12.41000080  16.21999931  46.47999573
C    13.10999966  16.46999931  45.20999908
C    14.51000023  16.42000008  45.24000168
C     4.69000006  18.06999969  46.03000259
H     4.46841574  17.66257095  45.04359436
H     9.13999939  17.90999985  43.81999969
H    10.36999893  16.56999969  48.31999969
H     7.88999987  16.82999992  49.05000305
H     5.72000027  17.57999992  48.52000427
H     6.86999989  18.18000031  44.45999908
H    15.08999920  16.61999893  44.34000015
H     4.01999998  17.63000107  46.77000046
H     4.48999977  19.13999939  46.00000000
S    15.70000076  15.77999973  48.94000244
C    18.32999992  15.27999973  48.15000153
C    17.05999947  15.64000034  47.87000275
C    16.69999886  15.98999977  46.55000305
C    17.72999954  15.98000050  45.54000092
C    19.04999924  15.57999992  45.80999756
C    20.09000015  15.44000053  44.86999893
C    21.31999969  15.01000023  45.26000214
C    21.68000031  14.65999985  46.56999969
C    20.73999786  14.82999992  47.55000305
C    19.38999939  15.21999931  47.18000031
C    15.31000042  16.13000107  46.38999939
C    14.60000038  16.00000000  47.57999802
C    13.17000008  15.98000050  47.63999939
C    23.12000084  14.39000034  46.95999908
H    23.33680725  14.72570229  47.97409821
H    18.50000000  14.92000008  49.15999985
H    17.54999924  16.28999901  44.52000046
H    19.90999985  15.65000057  43.81999969
H    22.11999893  14.92000008  44.52999878
H    21.04999924  14.57999992  48.55999756
H    12.79000092  15.97000027  48.66000366
H    23.75000000  14.88999939  46.22000122
H    23.31999969  13.30999947  46.86999893
S    11.52999973  17.15999985  50.76000214
C     9.02000046  17.79999924  51.63999939
C    10.26999950  17.30999947  51.91999817
C    10.71000004  17.01000023  53.26000214
C     9.68000031  17.06999969  54.25000000
C     8.38000011  17.63000107  53.95000076
C     7.25000000  17.60000038  54.89999771
C     5.96000004  17.82999992  54.40999985
C     5.72000027  18.18000031  53.02000046
C     6.71999979  18.26000023  52.11999893
C     8.10000038  17.97999954  52.57999802
C    12.07999992  16.79000092  53.43000031
C    12.65999985  16.87000084  52.16999817
C    14.01999950  16.90000153  52.08000183
C     4.23999977  18.40999985  52.60000229
H     4.00026369  17.77540588  51.74682236
H     8.67000008  17.95999908  50.61999893
H     9.90999985  16.68000031  55.22999573
H     7.40999985  17.07999992  55.84000015
H     5.13999987  17.63000107  55.08999634
H     6.63000011  18.40999985  51.04999924
H    14.44000053  17.12000084  51.10000229
H     3.54999995  18.19000053  53.41999817
H     4.09999990  19.43000031  52.22999954
S    15.22999954  16.13000107  55.81999969
C    17.92000008  15.80000019  54.99000168
C    16.60000038  16.13999939  54.66999817
C    16.21000099  16.52000046  53.36000061
C    17.20999908  16.55999947  52.36999893
C    18.53000069  16.13999939  52.60000229
C    19.48999977  16.10000038  51.56999969
C    20.69999886  15.51000023  51.86000061
C    21.15999985  15.06999969  53.09000015
C    20.23999977  15.15999985  54.13000107
C    18.90999985  15.70000076  53.90999603
C    14.78000069  16.73999977  53.25000000
C    14.19000053  16.54000092  54.47999954
C    12.84000015  16.61999893  54.55999756
C    22.59000015  14.81999969  53.37999725
H    23.01984406  15.46476555  54.14655304
H    18.25000000  15.52999973  55.98999786
H    17.05999947  16.90999985  51.35000229
H    19.27000046  16.32999992  50.52999878
H    21.40999985  15.39999962  51.04000092
H    20.51000214  14.88999939  55.14999771
H    12.30000019  16.59000015  55.50000000
H    23.15999985  14.94999981  52.44999695
H    22.56999969  13.78000069  53.74000168
