96

S    11.92999935  17.11000061  44.06999969
C     9.35999966  17.75000000  44.75999832
C    10.53999996  17.18000031  45.18000031
C    10.84000015  16.88999939  46.52000046
C     9.85000038  16.90999985  47.50000000
C     8.56999969  17.28000069  47.09000015
C     7.42000008  17.12000084  47.90000153
C     6.15000010  17.48999977  47.44999695
C     5.97000027  17.97000122  46.14999771
C     7.00000000  18.00000000  45.24000168
C     8.30000019  17.68000031  45.72000122
C    12.30000019  16.75000000  46.68000031
C    13.00000000  16.76000023  45.43000031
C    14.40000057  16.76000023  45.41999817
C     4.65999985  18.32999992  45.72000122
H     4.22823811  17.53017807  45.11836243
H     9.23999977  18.02999878  43.70999908
H     9.89999962  16.23999977  48.36000061
H     7.50999975  16.63999939  48.87000275
H     5.40999985  17.43999863  48.25000000
H     6.90999985  18.26000023  44.19000244
H    14.88999939  16.92000008  44.47000122
H     4.00000000  18.37000084  46.59999847
H     4.65000010  19.27000046  45.17000198
S    15.38000011  15.80000019  48.96999741
C    18.15000153  15.24000072  48.22999954
C    16.84999847  15.67000008  47.91999817
C    16.51000023  16.21000099  46.65000153
C    17.53999901  16.38000107  45.70999908
C    18.89000130  15.97000027  45.94999695
C    19.86999893  16.10999870  44.97000122
C    21.14000130  15.60999966  45.27999878
C    21.44000053  14.93999958  46.52999878
C    20.43999863  14.70999908  47.42000198
C    19.13999939  15.21999931  47.22000122
C    15.07999992  16.39999962  46.52999878
C    14.40999985  16.31000137  47.72999573
C    13.02000046  16.52000046  47.84000015
C    22.89999962  14.73000050  46.93000031
H    23.16179848  15.24632359  47.85356522
H    18.29000092  14.88000011  49.23999786
H    17.20000076  16.73999977  44.73999786
H    19.55999947  16.59000015  44.05000305
H    21.97999954  15.81999969  44.62999725
H    20.71000099  14.17000008  48.31999969
H    12.43999958  16.21999931  48.69999695
H    23.45000076  15.22999954  46.12999725
H    23.19000053  13.68000031  46.88999939
S    11.46999931  17.54999924  50.96000290
C     8.86999989  17.61999893  51.65000153
C    10.11000061  17.27000046  51.97999954
C    10.47999954  16.87000084  53.27000046
C     9.48000050  16.75000000  54.20999908
C     8.14000034  17.13000107  54.00000000
C     7.13999987  17.23999977  54.98000336
C     5.88000011  17.63000107  54.54000092
C     5.68000031  18.02000046  53.16999817
C     6.56000042  17.94000053  52.21000290
C     7.88000011  17.48999977  52.63000107
C    11.97000027  16.84000015  53.37999725
C    12.67000008  17.26000023  52.25999832
C    14.06999969  17.25000000  52.16999817
C     4.25000000  18.27000046  52.70999908
H     3.94840431  17.61654282  51.89138412
H     8.59000015  18.04999924  50.68999863
H     9.77999973  16.38000107  55.19000244
H     7.40999985  16.79000092  55.93999863
H     5.03999996  17.78000069  55.20999908
H     6.46000004  18.13999939  51.14999771
H    14.47000027  17.32999992  51.16000366
H     3.61000013  18.17000008  53.60000229
H     4.18000031  19.34000015  52.43999863
S    15.22999954  16.31000137  55.73999786
C    17.79000092  15.81999969  55.07999802
C    16.57999992  16.32999992  54.69999695
C    16.25000000  16.65999985  53.36999893
C    17.20000076  16.61999893  52.43000031
C    18.51000023  16.17000008  52.76000214
C    19.52999878  16.13000107  51.81999969
C    20.79999924  15.72000027  52.15999985
C    21.11000061  15.32999992  53.53000259
C    20.07999802  15.27999973  54.45999908
C    18.81000137  15.71000004  54.10999680
C    14.81999969  16.90000153  53.23999786
C    14.09999943  16.67000008  54.45000076
C    12.71000004  16.38000107  54.50000000
C    22.44999886  14.86999989  53.89999771
H    22.91436005  15.35546684  54.75836182
H    17.93000031  15.47000027  56.10000229
H    16.92000008  16.94000053  51.43000031
H    19.23999977  16.26000023  50.79000092
H    21.44000053  15.40999985  51.35000229
H    20.34000015  14.88000011  55.44000244
H    12.28000069  15.93999958  55.40000153
H    23.05999947  14.91000080  52.98999786
H    22.43999863  13.80000019  54.12000275
