96

S    12.23000050  16.61999893  44.15000153
C     9.55999947  16.82999992  44.85000229
C    10.78999996  16.35000038  45.14999771
C    11.16000080  15.90000057  46.46999741
C    10.22999954  15.97000027  47.48000336
C     8.94999981  16.45000076  47.15999985
C     7.86000013  16.57999992  48.13999939
C     6.65000010  17.18000031  47.83000183
C     6.40999985  17.38000107  46.52000046
C     7.35000038  17.22999954  45.58000183
C     8.63000011  16.82999992  45.86999893
C    12.60000038  15.77999973  46.70999908
C    13.30000019  16.21999931  45.56000137
C    14.65000057  16.26000023  45.48999786
C     5.00000000  17.80999947  46.17000198
H     4.52533627  17.23902702  45.37201309
H     9.19999981  17.07999992  43.85000229
H    10.50000000  15.64000034  48.47999954
H     8.00000000  16.26000023  49.16999817
H     5.84999990  17.40999985  48.54000092
H     7.09999990  17.52000046  44.55999756
H    15.14999962  16.36000061  44.52999878
H     4.36999989  17.64000130  47.05999756
H     5.00999975  18.89000130  45.97000122
S    15.65000057  15.31000042  49.19000244
C    18.38000107  14.96999931  48.48999786
C    17.09000015  15.34999943  48.11999893
C    16.79999924  15.86999989  46.81999969
C    17.79999924  15.92000008  45.87999725
C    19.13999939  15.39999962  46.14999771
C    20.06999969  15.11999989  45.13999939
C    21.35000038  14.73999977  45.50000000
C    21.61000061  14.45000076  46.90000153
C    20.69000053  14.47000027  47.87000275
C    19.38999939  14.98000050  47.52999878
C    15.36999893  16.04999924  46.65000153
C    14.60000038  15.65000057  47.80000305
C    13.28999996  15.59999943  47.88000107
C    23.05999947  14.07999992  47.11999893
H    23.35928917  14.60897541  48.02482605
H    18.63000107  14.53999996  49.45000076
H    17.61999893  16.03999901  44.80999756
H    19.77000046  15.47000027  44.15999985
H    22.15999985  14.77000046  44.78000259
H    20.98999977  14.07999992  48.83999634
H    12.77999973  15.32999992  48.81000137
H    23.64000130  14.51000023  46.30000305
H    23.00000000  12.97999954  47.14000320
S    16.14999962  12.89999962  52.31999969
C    18.72999954  12.51999950  51.46999741
C    17.40999985  12.35999966  51.16000366
C    16.90000153  12.03999996  49.86999893
C    17.82999992  11.64000034  48.96999741
C    19.19999886  11.52999973  49.27999878
C    20.19000053  11.05999947  48.34000015
C    21.47999954  10.95000076  48.69999695
C    21.97999954  11.28999901  49.92000198
C    21.09000015  11.84999943  50.83000183
C    19.65999985  11.98999977  50.54000092
C    15.47000027  12.15999985  49.79999924
C    14.86999989  12.68000031  51.03000259
C    13.53000069  13.07999992  51.06999969
C    23.38999939  10.93999958  50.24000168
H    23.57652664  11.35610008  51.23003387
H    19.05999947  12.67000008  52.50000000
H    17.56000137  11.36999989  47.95000076
H    19.90999985  10.67000008  47.36000061
H    22.19000053  10.53999996  47.97999954
H    21.31000137  12.10999966  51.86000061
H    13.09999943  13.76000023  51.79999924
H    23.52999878   9.85999966  50.07999802
H    23.98999977  11.36999989  49.43000031
S    12.09000015  11.64999962  47.57999802
C     9.44000053  12.30999947  48.29000092
C    10.80000019  12.28000069  48.60000229
C    11.28000069  12.77999973  49.85000229
C    10.39999962  13.28999996  50.81999969
C     8.97000027  13.38999939  50.45000076
C     8.01999950  13.88000011  51.38999939
C     6.76000023  14.04000092  51.04000092
C     6.28999996  13.64999962  49.73999786
C     7.11999989  12.94999981  48.97999573
C     8.50000000  12.81000042  49.22000122
C    12.71000004  12.61999989  50.00999832
C    13.30000019  12.03999996  48.83999634
C    14.68000031  11.85999966  48.70999908
C     4.94999981  14.11000061  49.29999924
H     4.63950682  13.69841671  48.33963776
H     9.03999996  11.85999966  47.38999939
H    10.77999973  13.68000031  51.76000214
H     8.36999989  14.32999992  52.31999969
H     6.28999996  14.68000031  51.79000092
H     6.72999954  12.57999992  48.02999878
H    15.13000011  11.33999920  47.85999680
H     4.94999981  15.21000004  49.20999908
H     4.13999987  13.89000034  50.00999832
