96

S    12.25999928  17.13000107  44.09000015
C     9.59000015  17.43000031  44.73999786
C    10.81999969  17.01000023  45.10000229
C    11.09000015  16.51000023  46.45999908
C    10.13000011  16.48999977  47.36000061
C     8.85999966  17.02000046  47.08000183
C     7.78999996  16.95000076  48.02000046
C     6.48999977  17.35999870  47.70999908
C     6.19000006  17.78000069  46.32999802
C     7.23999977  17.79000092  45.43000031
C     8.61999989  17.43999863  45.73999786
C    12.51999950  16.31999969  46.58000183
C    13.21000004  16.61000061  45.34999847
C    14.63999939  16.67000008  45.34000015
C     4.73000002  18.22000122  45.97999954
H     4.34857464  17.49120522  45.26482773
H     9.28999996  17.82999992  43.76999664
H    10.31000042  16.18000031  48.39000320
H     8.11999989  16.60000038  48.99000168
H     5.73999977  17.39999962  48.47999954
H     7.00000000  18.02999878  44.40000153
H    15.21999931  16.93000031  44.47000122
H     4.09999990  18.44000053  46.84000015
H     4.78999996  19.12999916  45.37000275
S    15.69000053  15.42000008  48.97999573
C    18.46999931  15.29000092  48.26000214
C    17.15999985  15.59000015  47.95999908
C    16.84999847  16.18999863  46.65000153
C    17.87999916  16.44000053  45.77000046
C    19.13999939  16.10999870  46.10000229
C    20.25000000  16.21000099  45.22999573
C    21.55999947  15.73999977  45.47999954
C    21.71999931  15.07999992  46.76000214
C    20.76000023  15.06999969  47.70000076
C    19.45000076  15.44999981  47.29999924
C    15.36999893  16.28000069  46.47999573
C    14.63999939  15.80999947  47.63999939
C    13.22999954  15.88000107  47.70000076
C    23.05999947  14.55000019  47.00000000
H    23.43300819  15.04495335  47.89665222
H    18.71999931  14.93999958  49.25000000
H    17.61999893  16.77000046  44.77000427
H    19.98999977  16.65999985  44.27000046
H    22.39999962  15.73999977  44.79000092
H    20.79999924  14.85999966  48.75999832
H    12.75000000  15.75000000  48.66000366
H    23.81000137  14.63999939  46.19999695
H    23.02000046  13.48000050  47.22999954
S    16.27000046  13.03999996  52.11999893
C    18.88000107  12.38000011  51.25999832
C    17.52000046  12.43999958  51.02000427
C    16.94000053  11.87000084  49.85000229
C    17.81999969  11.36999989  48.90999603
C    19.19999886  11.39999962  49.02999878
C    20.03000069  10.85999966  48.04000092
C    21.38000107  10.65000057  48.34000015
C    21.96000099  11.23999977  49.54999924
C    21.09999847  11.76000023  50.45000076
C    19.71999931  11.82999992  50.25000000
C    15.50000000  12.03999996  49.78000259
C    14.98999977  12.65999985  50.97000122
C    13.64999962  13.19000053  50.90999985
C    23.36000061  11.10999966  49.84000397
H    23.60896301  11.55951786  50.80128098
H    19.23999977  12.77999973  52.21000290
H    17.43999863  10.92000008  48.00000000
H    19.54000092  10.40999985  47.18000031
H    21.91999817   9.98999977  47.67000198
H    21.42999840  12.15000057  51.40999603
H    13.30000019  13.76000023  51.77000046
H    23.61999893  10.05000019  49.88999939
H    24.04999924  11.68000031  49.19000244
S    12.06999969  11.98999977  47.45999908
C     9.52000046  12.64000034  48.29999924
C    10.85999966  12.60000038  48.56999969
C    11.38000011  13.20000076  49.75000000
C    10.53999996  13.63000011  50.70999908
C     9.17000008  13.63000011  50.50000000
C     8.27000046  14.15999985  51.46999741
C     6.98000002  14.40000057  51.22000122
C     6.50000000  14.01000023  49.93000031
C     7.30000019  13.40000057  49.02999878
C     8.64999962  13.21000004  49.25000000
C    12.82999992  12.97999954  49.84000397
C    13.38000107  12.30999947  48.70999908
C    14.73000050  11.87999916  48.64999771
C     5.05000019  14.19000053  49.62999725
H     4.69413328  13.67043304  48.74032974
H     9.10000038  12.28000069  47.36000061
H    10.90000057  14.02999973  51.65999985
H     8.67999935  14.57999992  52.37999725
H     6.39999962  14.96000099  51.95000076
H     6.93000031  13.17000008  48.02999878
H    15.19999981  11.54000092  47.72999573
H     4.86999989  15.26999950  49.59999847
H     4.53999996  13.85000038  50.52999878
