96

S    12.30000019  16.67000008  44.13000107
C     9.59000015  17.01000023  44.81999969
C    10.86999989  16.60000038  45.20000076
C    11.21000099  16.29999924  46.56999969
C    10.21000004  16.21999931  47.49000168
C     8.89999962  16.55999947  47.19999695
C     7.82000017  16.47999954  48.11999893
C     6.51999998  16.72000122  47.85999680
C     6.21000004  17.30999947  46.59000015
C     7.23000002  17.38000107  45.58000183
C     8.56999969  16.95000076  45.81999969
C    12.61000061  16.01000023  46.70999908
C    13.34000015  16.23999977  45.52000046
C    14.73000050  16.06999969  45.45000076
C     4.77999973  17.71000099  46.31000137
H     4.42234325  17.10689163  45.47547150
H     9.35999966  17.20999908  43.76999664
H    10.46000004  15.97000027  48.52000427
H     8.09000015  16.09000015  49.09999847
H     5.80999947  16.67000008  48.68999863
H     6.98000002  17.64999962  44.54999924
H    15.29999924  16.26000023  44.54999924
H     4.19000006  17.50000000  47.21000290
H     4.65999985  18.78000069  46.11000061
S    15.77999973  15.31000042  49.19000244
C    18.43000031  14.77000046  48.54000092
C    17.19000053  15.31999969  48.16999817
C    16.86000061  15.71000004  46.84999847
C    17.85000038  15.78999996  45.91999817
C    19.07999992  15.34999943  46.30000305
C    20.15999985  15.44999981  45.40999985
C    21.47999954  15.19999981  45.72999954
C    21.81999969  14.61999989  46.98999786
C    20.79000092  14.40999985  47.94000244
C    19.38999939  14.77000046  47.60000229
C    15.44999981  15.81999969  46.65000153
C    14.70999908  15.67000008  47.83000183
C    13.30000019  15.62999916  47.84000015
C    23.28000069  14.34999943  47.29999924
H    23.52885818  14.91881847  48.19588852
H    18.55999947  14.37999916  49.54000092
H    17.61000061  16.07999992  44.89999771
H    19.95000076  15.82999992  44.41999817
H    22.30999947  15.44000053  45.06000137
H    20.97999954  14.00000000  48.92000198
H    12.76000023  15.52000046  48.77999878
H    23.98999977  14.68000031  46.52999878
H    23.40999985  13.27000046  47.31999969
S    15.80999947  13.19000053  52.41000366
C    18.45999908  12.69999981  51.49000168
C    17.09000015  12.56000042  51.29000092
C    16.54999924  11.92000008  50.14999771
C    17.35999870  11.46999931  49.10999680
C    18.76000023  11.54000092  49.27999878
C    19.61000061  10.84000015  48.37999725
C    20.89999962  10.71000004  48.68000031
C    21.48999977  11.19999981  49.88999939
C    20.65999985  11.90000057  50.77000046
C    19.27000046  12.02999973  50.54999924
C    15.11000061  12.25000000  50.11000061
C    14.52999973  12.84999943  51.23000336
C    13.25000000  13.30000019  51.27999878
C    22.95000076  11.03999996  50.14999771
H    23.21653366  11.32757568  51.16703415
H    18.93000031  13.07999992  52.39999771
H    16.90999985  11.05000019  48.20999908
H    19.15999985  10.52999973  47.43999863
H    21.55999947  10.21999931  47.95999908
H    21.17000198  12.43000031  51.56999969
H    12.92000008  13.88000011  52.12999725
H    23.05000114   9.94000053  50.13000107
H    23.59000015  11.56000042  49.43000031
S    11.92999935  12.32999992  47.80000305
C     9.22000027  12.93000031  48.39000320
C    10.57000065  12.86000061  48.79000092
C    10.93000031  13.21000004  50.07999802
C     9.94000053  13.66000080  50.91999817
C     8.57999992  13.66000080  50.59000015
C     7.62000036  14.04000092  51.58000183
C     6.34000015  14.13000011  51.19999695
C     5.92999983  13.80000019  49.85000229
C     6.81999969  13.27999973  48.96999741
C     8.17000008  13.25000000  49.29000092
C    12.39999962  13.05999947  50.26000214
C    13.02000046  12.50000000  49.09000015
C    14.30999947  12.09000015  48.96999741
C     4.51000023  14.11000061  49.47999954
H     4.21345806  13.67224693  48.52682877
H     8.78999996  12.43000031  47.51999664
H    10.22999954  14.02999973  51.90000153
H     7.97999954  14.42999935  52.52999878
H     5.59000015  14.42000008  51.93999863
H     6.44999981  13.12999916  47.95999908
H    14.68999958  11.69000053  48.04000092
H     4.48999977  15.21000004  49.43999863
H     3.88000011  13.78000069  50.31999969
