96

S    12.23000050  17.00000000  44.20000076
C     9.63000011  17.32999992  45.11000061
C    10.88999939  16.88999939  45.34000015
C    11.28999901  16.38000107  46.59999847
C    10.32999992  16.04999924  47.55000305
C     9.02999973  16.55999947  47.37999725
C     8.10000038  16.42000008  48.40000153
C     6.84000015  16.80999947  48.18000031
C     6.44999981  17.39999962  46.97000122
C     7.37999964  17.60000038  45.94999695
C     8.67999935  17.19000053  46.11000061
C    12.69000053  16.32999992  46.72000122
C    13.35000038  16.62999916  45.52000046
C    14.77000046  16.68000031  45.44000244
C     5.01999950  17.73999977  46.68000031
H     4.60631657  17.30563354  45.76989365
H     9.48000050  17.75000000  44.12000275
H    10.59999943  15.60999966  48.50999832
H     8.38000011  16.06999969  49.38999939
H     6.21000004  16.73999977  49.06000137
H     7.13000011  17.94999886  44.94999695
H    15.31999969  16.87000084  44.52000046
H     4.33999968  17.61999893  47.52999878
H     4.97000027  18.82999992  46.51000214
S    15.98999977  15.52999973  49.03999710
C    18.52000046  15.05000019  48.22000122
C    17.30999947  15.52000046  47.88000107
C    16.95000076  16.11999893  46.63999939
C    18.00000000  16.26000023  45.72000122
C    19.27000046  15.70000076  45.96000290
C    20.35000038  15.62000084  45.00000000
C    21.59000015  15.06999969  45.31999969
C    21.84000015  14.60999966  46.63000107
C    20.79000092  14.57999992  47.55000305
C    19.52000046  15.08999920  47.23999786
C    15.53999996  16.42000008  46.59000015
C    14.85000038  16.05999947  47.76000214
C    13.47000027  16.00000000  47.84000015
C    23.23999786  14.19000053  47.05999756
H    23.52471352  14.65453529  48.00405502
H    18.68999863  14.68000031  49.22000122
H    17.73999977  16.62999916  44.72999954
H    20.23999977  16.15999985  44.06999969
H    22.40999985  15.19999981  44.61999893
H    20.88999939  14.04000092  48.48999786
H    13.02000046  15.65999985  48.76999664
H    23.92999840  14.52999973  46.27999878
H    23.29000092  13.09999943  47.04000092
S    11.73999977  17.25000000  50.93000031
C     9.07999992  17.34000015  51.65000153
C    10.34999943  16.97999954  51.93000031
C    10.72999954  16.48999977  53.22999954
C     9.80000019  16.39000130  54.20999908
C     8.47999954  16.84999847  54.02999878
C     7.44999981  16.80999947  54.98000336
C     6.19000006  17.17000008  54.72999954
C     5.75999975  17.70000076  53.43000031
C     6.71999979  17.68000031  52.47000122
C     8.09000015  17.28000069  52.65999603
C    12.13999939  16.50000000  53.47000122
C    12.77999973  16.72000122  52.25999832
C    14.14999962  16.75000000  52.15000153
C     4.42000008  18.25000000  53.11000061
H     3.96026468  17.67361450  52.30717850
H     8.92000008  17.93000031  50.75000000
H    10.11999989  16.07999992  55.20000076
H     7.73999977  16.36000061  55.91999817
H     5.46999979  17.07999992  55.52999878
H     6.46000004  18.05999947  51.47999573
H    14.68999958  17.12000084  51.29000092
H     3.77999997  18.27999878  54.01000214
H     4.59999990  19.29999924  52.85999680
S    15.26000023  15.59999943  55.81999969
C    17.98999977  15.40999985  55.06000137
C    16.72999954  15.71000004  54.72000122
C    16.36999893  16.13000107  53.34999847
C    17.39999962  16.14999962  52.42000198
C    18.68999863  15.71000004  52.80000305
C    19.70999908  15.59999943  51.86999893
C    21.01000023  15.29000092  52.15000153
C    21.35999870  15.01000023  53.55999756
C    20.38000107  15.00000000  54.52999878
C    19.05999947  15.32999992  54.13000107
C    14.92000008  16.36000061  53.22999954
C    14.28999996  16.13999939  54.45999908
C    12.97000027  16.31999969  54.59999847
C    22.79999924  14.78999996  53.89999771
H    23.10737801  15.06878471  54.90791321
H    18.25000000  15.29999924  56.11000061
H    17.34000015  16.44000053  51.38000107
H    19.40000153  15.88999939  50.86999893
H    21.80000114  15.14999962  51.42000198
H    20.63999939  14.91000080  55.58000183
H    12.51999950  15.95999908  55.52000046
H    23.36000061  15.38000011  53.15000153
H    22.95999908  13.71999931  53.72000122
