96

S    12.13000107  16.81999969  44.02000046
C     9.64999962  17.56000137  44.91000366
C    10.88999939  17.05000114  45.15999603
C    11.14999962  16.72999954  46.47999573
C    10.24000072  16.69000053  47.52999878
C     8.92000008  17.17000008  47.18999863
C     7.82000017  17.05000114  48.04000092
C     6.54999971  17.51000023  47.63999939
C     6.28999996  17.95999908  46.32999802
C     7.39000034  18.02000046  45.41999817
C     8.65999985  17.67000008  45.86999893
C    12.61000061  16.45000076  46.58000183
C    13.27000046  16.50000000  45.31999969
C    14.65000057  16.34000015  45.21999741
C     4.88999987  18.42000008  45.86000061
H     4.32873583  17.65778923  45.31952286
H     9.47000027  17.86000061  43.88000107
H    10.55999947  16.45000076  48.54000092
H     7.90000010  16.61000061  49.02999878
H     5.73000002  17.61000061  48.33000183
H     7.26000023  18.46999931  44.43999863
H    15.18000031  16.59000015  44.29999924
H     4.42000008  18.65999985  46.81999969
H     4.74000025  19.34999847  45.28999710
S    15.71000004  15.51000023  48.95000076
C    18.35000038  15.25000000  48.31999969
C    17.10000038  15.67000008  47.88000107
C    16.77000046  16.00000000  46.56000137
C    17.81999969  16.07999992  45.72999954
C    19.17000008  15.57999992  46.00999832
C    20.20999908  15.50000000  45.06000137
C    21.47999954  15.19999981  45.47999954
C    21.70999908  14.61999989  46.72999954
C    20.68000031  14.59000015  47.61000061
C    19.38999939  15.08999920  47.35000229
C    15.32999992  16.10000038  46.40999603
C    14.61999989  15.93999958  47.70000076
C    13.23999977  16.06999969  47.76000214
C    23.12999916  14.23999977  47.05999756
H    23.41166496  14.70221901  48.00610352
H    18.50000000  14.98000050  49.36000061
H    17.61999893  16.36000061  44.69999695
H    19.88999939  15.70000076  44.03999710
H    22.29999924  15.18000031  44.75999832
H    20.86000061  14.34000015  48.66000366
H    12.64999962  15.93000031  48.66000366
H    23.77000046  14.57999992  46.25000000
H    23.22000122  13.14000034  47.04000092
S    12.02999973  17.12000084  50.89000320
C     9.27999973  17.53000069  51.56000137
C    10.51000023  17.02999878  51.90000153
C    10.84000015  16.63999939  53.26000214
C     9.77000046  16.61999893  54.16999817
C     8.47999954  17.06999969  53.82999802
C     7.34000015  16.98999977  54.69999695
C     6.06999969  17.35999870  54.31000137
C     5.89999962  17.97999954  53.06999969
C     6.90999985  18.02000046  52.19999695
C     8.23000050  17.63000107  52.56000137
C    12.30000019  16.46000099  53.40999985
C    13.05999947  16.68000031  52.18000031
C    14.46000004  16.73999977  52.15999985
C     4.53999996  18.51000023  52.69000244
H     4.06097460  17.90601349  51.91939545
H     9.01000023  17.77000046  50.52999878
H     9.77000046  16.14999962  55.14999771
H     7.46000004  16.55999947  55.68999863
H     5.27999973  17.35000038  55.05000305
H     6.78999996  18.40999985  51.19999695
H    14.92000008  16.86000061  51.18000031
H     3.89999986  18.47999954  53.57999802
H     4.55999994  19.55000114  52.35000229
S    15.55999947  15.95000076  55.81999969
C    18.18000031  15.52000046  55.18000031
C    16.94000053  15.95000076  54.79000092
C    16.62999916  16.28999901  53.46000290
C    17.56999969  16.09000015  52.43999863
C    18.86000061  15.72999954  52.78999710
C    19.95000076  15.53999996  51.81999969
C    21.21000099  15.14999962  52.12999725
C    21.50000000  14.96000099  53.54000092
C    20.48999977  15.05000019  54.51000214
C    19.18000031  15.43000031  54.20000076
C    15.14999962  16.45000076  53.30999756
C    14.44000053  16.18000031  54.52000046
C    13.02000046  16.11999893  54.58000183
C    22.93999863  14.77000046  54.02000046
H    23.02692223  15.07422924  55.06306839
H    18.34000015  15.17000008  56.19999695
H    17.23999977  15.97000027  51.42000198
H    19.65999985  15.67999935  50.77999878
H    21.94999886  15.05000019  51.35000229
H    20.75000000  15.21000004  55.54999924
H    12.53999901  15.72000027  55.47000122
H    23.59000015  15.32999992  53.34999847
H    23.19000053  13.71999931  53.81999969
