96

S    12.13000107  16.84000015  43.96999741
C     9.43000031  17.26000023  44.72999954
C    10.67999935  16.87000084  45.01999664
C    11.00999928  16.31000137  46.32999802
C     9.98999977  16.17000008  47.23999786
C     8.65999985  16.77999878  47.00000000
C     7.57999992  16.79000092  47.95000076
C     6.35999966  17.28999901  47.65999603
C     6.15999985  17.88999939  46.39999771
C     7.16000032  17.98999977  45.50000000
C     8.43000031  17.40999985  45.72000122
C    12.48000050  16.29999924  46.56000137
C    13.17999935  16.39999962  45.33000183
C    14.52000046  16.18999863  45.27000046
C     4.75000000  18.04000092  45.97999954
H     4.44948435  17.32902527  45.21038818
H     9.02999973  17.51000023  43.75000000
H    10.25000000  15.67000008  48.15999985
H     7.76000023  16.38000107  48.94000244
H     5.59000015  17.32999992  48.43000031
H     6.90000010  18.30999947  44.50000000
H    15.08999920  16.32999992  44.34999847
H     4.07999992  17.97999954  46.84999847
H     4.63000011  19.10000038  45.70000076
S    15.54999924  15.19000053  49.01000214
C    18.27000046  15.06999969  48.43999863
C    16.97000122  15.15999985  48.00000000
C    16.67000008  15.46000004  46.62000275
C    17.70000076  15.59000015  45.68999863
C    19.03000069  15.36999893  46.10000229
C    20.12000084  15.32999992  45.11000061
C    21.40999985  15.11000061  45.48999786
C    21.63000107  14.73000050  46.88000107
C    20.62999916  14.73000050  47.84999847
C    19.29999924  15.07999992  47.49000168
C    15.22999954  15.78999996  46.40999603
C    14.52999973  15.69000053  47.67000198
C    13.17999935  16.02000046  47.72999573
C    23.03999901  14.42999935  47.29999924
H    23.32130051  15.12243271  48.09341431
H    18.63999939  14.81999969  49.43000031
H    17.50000000  16.03000069  44.71000290
H    19.88000107  15.46000004  44.06000137
H    22.19000053  15.03000069  44.73999786
H    20.75000000  14.34000015  48.86000061
H    12.63000011  15.77000046  48.62999725
H    23.65999985  14.45000076  46.38999939
H    23.00000000  13.38999939  47.64999771
S    11.63000011  17.27000046  50.59999847
C     8.94999981  17.63000107  51.31999969
C    10.21999931  17.13999939  51.65000153
C    10.48999977  16.53000069  52.90000153
C     9.61000061  16.48999977  53.86000061
C     8.30000019  16.90999985  53.61000061
C     7.26000023  16.94000053  54.59000015
C     5.95000029  17.28999901  54.38000107
C     5.65999985  17.88999939  53.15999985
C     6.63000011  18.06999969  52.15999985
C     7.97999954  17.53999901  52.38999939
C    11.92999935  16.36000061  53.06999969
C    12.61999989  16.56999969  51.84000015
C    14.02999973  16.52000046  51.81000137
C     4.23000002  18.15000153  52.81999969
H     4.00385427  17.56343460  51.92955017
H     8.76000023  18.04999924  50.33000183
H     9.77000046  16.10000038  54.86999893
H     7.50999975  16.45000076  55.52999878
H     5.15999985  16.92000008  55.01999664
H     6.51000023  18.55999947  51.19999695
H    14.56999969  16.63999939  50.87999725
H     3.55999994  17.86000061  53.63999939
H     4.05000019  19.19999886  52.57999802
S    15.01999950  15.76000023  55.61000061
C    17.71999931  15.34999943  55.00999832
C    16.44000053  15.73999977  54.62999725
C    16.18000031  16.20000076  53.25000000
C    17.30999947  16.18999863  52.37999725
C    18.57999992  15.73999977  52.81999969
C    19.70000076  15.85000038  51.93000031
C    21.00000000  15.54999924  52.35000229
C    21.14999962  15.18000031  53.62999725
C    20.12000084  14.96000099  54.51000214
C    18.79999924  15.31000042  54.12000275
C    14.73000050  16.38000107  53.02999878
C    14.01000023  16.13999939  54.19000244
C    12.56999969  16.06999969  54.26000214
C    22.60000038  14.88000011  54.12000275
H    22.83581543  15.35877514  55.07040405
H    17.79000092  14.88999939  55.98999786
H    17.19000053  16.53000069  51.35000229
H    19.47000122  16.23999977  50.93999863
H    21.78999901  15.64000034  51.60999680
H    20.28000069  14.60999966  55.52000046
H    11.98999977  16.01000023  55.18000031
H    23.38000107  15.21000004  53.43000031
H    22.77000046  13.81000042  54.27999878
