96

S    12.28000069  17.13000107  44.27000046
C     9.63000011  17.32999992  44.91000366
C    10.86999989  16.87000084  45.24000168
C    11.23999977  16.36000061  46.55000305
C    10.31000042  16.42000008  47.56999969
C     9.00000000  16.70999908  47.18999863
C     7.88000011  16.63999939  48.13000107
C     6.63999987  17.10000038  47.90000153
C     6.30999994  17.56999969  46.62000275
C     7.28999996  17.61999893  45.66999817
C     8.63000011  17.13999939  45.90000153
C    12.65999985  16.13000107  46.63000107
C    13.35999966  16.46000099  45.45999908
C    14.75000000  16.67000008  45.47000122
C     4.94000006  18.01000023  46.23000336
H     4.53085899  17.41745186  45.41172028
H     9.44999981  18.01000023  44.08000183
H    10.47999954  16.07999992  48.59000397
H     8.07999992  16.18999863  49.09999847
H     5.92000008  17.28999901  48.68000031
H     7.11000013  18.04999924  44.68999863
H    15.36999893  16.97000122  44.62999725
H     4.21999979  17.87999916  47.04999924
H     5.00999975  19.05999947  45.91999817
S    15.81999969  15.34000015  49.10999680
C    18.51000023  15.17000008  48.41999817
C    17.23999977  15.44000053  48.04999924
C    16.94000053  16.03000069  46.70999908
C    18.00000000  16.38000107  45.79999924
C    19.34000015  15.95999908  46.14999771
C    20.35000038  16.13999939  45.24000168
C    21.59000015  15.60999966  45.52999878
C    21.80000114  15.14000034  46.81999969
C    20.88999939  15.10000038  47.77999878
C    19.59000015  15.39000034  47.47000122
C    15.47000027  16.22999954  46.59000015
C    14.73000050  15.92000008  47.77999878
C    13.36999989  15.85000038  47.84000015
C    23.13999939  14.56999969  47.22999954
H    23.61186218  15.22922039  47.95861053
H    18.89000130  14.91000080  49.40999985
H    17.68000031  16.72000122  44.80999756
H    20.10000038  16.61000061  44.29000092
H    22.32000160  15.48999977  44.72999954
H    21.17000198  14.81999969  48.80000305
H    12.90999985  15.71000004  48.81000137
H    23.81999969  14.56999969  46.36000061
H    22.98000145  13.59000015  47.69000244
S    15.59999943  13.04999924  52.23999786
C    18.20999908  12.44999981  51.72000122
C    16.88999939  12.30000019  51.31999969
C    16.46000099  11.90999985  50.04000092
C    17.43000031  11.59999943  49.12000275
C    18.77000046  11.69000053  49.47000122
C    19.70000076  11.03999996  48.59000397
C    21.02999878  11.06999969  48.88999939
C    21.56999969  11.80999947  49.95999908
C    20.65999985  12.25000000  50.93999863
C    19.19000053  12.18000031  50.73999786
C    15.06999969  12.23000050  49.85000229
C    14.47000027  12.75000000  51.00000000
C    13.15000057  13.07999992  51.06999969
C    23.03999901  12.01000023  50.06000137
H    23.43255997  11.61030293  50.99500656
H    18.52000046  12.94999981  52.63000107
H    17.15999985  11.23000050  48.13999939
H    19.38999939  10.65999985  47.63000107
H    21.73000145  10.59000015  48.20999908
H    21.04000092  12.74000072  51.83000183
H    12.79000092  13.53000069  51.98999786
H    23.57000160  11.54000092  49.22000122
H    23.15000153  13.09999943  50.12000275
S    11.95000076  12.43000031  47.39999771
C     9.21000004  12.96000004  48.09000015
C    10.57000065  12.90999985  48.46000290
C    11.00999928  13.28999996  49.78000259
C    10.07999992  13.73000050  50.70999908
C     8.75000000  13.86999989  50.38000107
C     7.83999968  14.25000000  51.40999603
C     6.52999973  14.37000084  51.07999802
C     6.06999969  13.89999962  49.79999924
C     6.94000006  13.48999977  48.82999802
C     8.30999947  13.43999958  49.08000183
C    12.44999981  13.02000046  49.88999939
C    13.01000023  12.48000050  48.70999908
C    14.35999966  12.03999996  48.75999832
C     4.63000011  14.14000034  49.47999954
H     4.46756029  13.69505596  48.49829865
H     8.80000019  12.61000061  47.14000320
H    10.36000061  14.06999969  51.70000076
H     8.36000061  14.52000046  52.32999802
H     5.82999992  14.89999962  51.72000122
H     6.61999989  13.19000053  47.84000015
H    14.81999969  11.44000053  47.97999954
H     4.56999969  15.24000072  49.41999817
H     3.86000013  13.81999969  50.19000244
