96

S    12.76000023  17.07999992  44.40999985
C    10.01999950  17.23999977  45.04000092
C    11.30000019  16.80999947  45.40999985
C    11.69999981  16.52000046  46.77999878
C    10.73999977  16.46000099  47.76000214
C     9.39999962  16.88999939  47.43999863
C     8.46000004  16.92000008  48.46000290
C     7.07000017  17.18000031  48.16999817
C     6.75000000  17.59000015  46.77000046
C     7.73999977  17.65999985  45.84999847
C     9.03999996  17.22999954  46.07999802
C    13.15999985  16.42000008  46.97999954
C    13.86000061  16.72000122  45.79000092
C    15.21999931  16.55999947  45.68000031
C     5.29999971  17.86000061  46.43000031
H     4.96200943  17.46682739  45.47121048
H     9.88000011  17.93000031  44.20999908
H    10.98999977  16.10000038  48.75000000
H     8.73000050  16.51000023  49.43999863
H     6.26999950  17.10000038  48.88999939
H     7.51999950  17.97000122  44.82999802
H    15.67000008  16.61999893  44.69999695
H     4.67000008  17.53999901  47.28000259
H     5.15999985  18.94000053  46.37000275
S    16.39000130  15.62999916  49.34999847
C    19.04999924  15.32999992  48.56999969
C    17.71999931  15.64000034  48.26000214
C    17.29999924  15.98999977  46.93000031
C    18.30000114  15.95999908  45.90000153
C    19.61000061  15.62000084  46.17000198
C    20.58000183  15.52000046  45.15999603
C    21.91999817  15.26999950  45.40000153
C    22.25000000  14.92000008  46.72999954
C    21.34000015  14.92000008  47.76000214
C    20.00000000  15.31000042  47.50999832
C    15.93000031  16.26000023  46.83000183
C    15.26999950  16.03999901  48.09000015
C    13.85000038  16.13000107  48.15999985
C    23.59000015  14.52999973  47.04999924
H    23.73168564  14.79211998  48.09848404
H    19.22000122  15.01000023  49.59999847
H    18.15999985  16.36999893  44.89999771
H    20.30999947  15.77000046  44.13999939
H    22.75000000  15.21000004  44.69999695
H    21.61000061  14.52999973  48.74000168
H    13.25000000  15.93999958  49.05000305
H    24.26000214  15.01000023  46.32999802
H    23.84000015  13.48999977  46.79999924
S    16.03999901  13.09999943  52.31999969
C    18.68000031  12.53999901  51.46999741
C    17.34000015  12.56000042  51.24000168
C    16.77000046  12.02999973  50.00000000
C    17.64999962  11.61999893  49.03999710
C    19.04000092  11.54999924  49.26000214
C    20.00000000  11.14999962  48.27999878
C    21.42000008  11.05999947  48.57999802
C    21.87999916  11.26999950  49.91000366
C    21.00000000  11.80999947  50.84000015
C    19.63000107  11.98999977  50.56000137
C    15.34000015  12.20000076  49.91000366
C    14.80000019  12.75000000  51.11000061
C    13.45999908  13.10999966  51.18000031
C    23.38999939  11.19999981  50.27999878
H    23.66956139  11.37203884  51.31939697
H    19.07999992  13.12000084  52.29999924
H    17.26000023  11.18999958  48.11999893
H    19.50000000  10.88999939  47.36000061
H    22.07999992  10.59999943  47.84000015
H    21.31999969  12.28999996  51.76000214
H    13.02999973  13.48999977  52.09999847
H    23.80000114  10.21999931  49.98000336
H    23.88999939  11.87000084  49.56999969
S    12.06999969  12.18000031  47.56000137
C     9.43000031  12.57999992  48.47000122
C    10.80000019  12.69000053  48.73000336
C    11.31999969  13.27000046  49.93999863
C    10.47000027  13.76999950  50.87999725
C     9.04999924  13.86999989  50.59999847
C     8.15999985  14.44000053  51.46999741
C     6.86999989  14.61999989  51.05999756
C     6.39999962  14.14000034  49.78000259
C     7.22000027  13.48000050  48.95999908
C     8.60000038  13.28999996  49.31999969
C    12.76000023  13.07000065  50.06000137
C    13.26000023  12.50000000  48.82999802
C    14.55000019  12.02000046  48.74000168
C     4.92999983  14.25000000  49.40999985
H     4.69769335  14.04673100  48.36462021
H     9.06000042  12.27000046  47.49000168
H    10.81999969  14.06999969  51.86000061
H     8.60000038  14.78999996  52.39999771
H     6.12999964  14.98000050  51.77000046
H     6.89000034  12.92000008  48.09000015
H    15.08999920  11.64999962  47.88000107
H     4.55000019  15.22999954  49.69999695
H     4.36999989  13.52000046  50.01999664
