96

S    11.82000065  16.81999969  44.19000244
C     9.19000053  17.10000038  44.94999695
C    10.43000031  16.69000053  45.31000137
C    10.78999996  16.15999985  46.56999969
C     9.80000019  16.18999863  47.57999802
C     8.46000004  16.48999977  47.19999695
C     7.36000013  16.53000069  48.13999939
C     6.14000034  17.02000046  47.75000000
C     5.78000021  17.39999962  46.39999771
C     6.80999994  17.42000008  45.52000046
C     8.14999962  17.02999878  45.90000153
C    12.25999928  15.98000050  46.62000275
C    12.97999954  16.34000015  45.47000122
C    14.34999943  16.23999977  45.41999817
C     4.36999989  17.64999962  45.98999786
H     4.01641655  17.03476334  45.16261292
H     9.01000023  17.63000107  44.02000046
H    10.05000019  15.95000076  48.61000061
H     7.50999975  16.23999977  49.16999817
H     5.40000010  17.02999878  48.54999924
H     6.61000013  17.72999954  44.50000000
H    14.88999939  16.55999947  44.52999878
H     3.73000002  17.34000015  46.83000183
H     4.19999981  18.71000099  45.73999786
S    15.60999966  15.31000042  49.06999969
C    18.22000122  15.27999973  48.50000000
C    16.95000076  15.60999966  48.06000137
C    16.55999947  15.93999958  46.72999954
C    17.65999985  16.13000107  45.86000061
C    18.98999977  15.77000046  46.31000137
C    20.06000137  15.80000019  45.37000275
C    21.40000153  15.59999943  45.75000000
C    21.67000008  15.15999985  47.04999924
C    20.69000053  15.03000069  47.97999954
C    19.32999992  15.38000011  47.64999771
C    15.11999989  16.02000046  46.52999878
C    14.42000008  15.77999973  47.77000046
C    13.02999973  15.73999977  47.77000046
C    23.09000015  14.75000000  47.36000061
H    23.53517723  15.34357071  48.15849304
H    18.40999985  14.93000031  49.51000214
H    17.40999985  16.48999977  44.86000061
H    19.75000000  15.95999908  44.34000015
H    22.11999893  15.55999947  44.93999863
H    20.88999939  14.75000000  49.01000214
H    12.61000061  15.62000084  48.75999832
H    23.61999893  14.94999981  46.42000198
H    23.12000084  13.68999958  47.65999603
S    16.34000015  12.72999954  52.36999893
C    19.03000069  12.38999939  51.49000168
C    17.67000008  12.22000027  51.25999832
C    17.20000076  11.73999977  50.00000000
C    18.11000061  11.54000092  48.94000244
C    19.51000023  11.77999973  49.08000183
C    20.46999931  11.46000004  48.09999847
C    21.78999901  11.43000031  48.43999863
C    22.20000076  11.64999962  49.78000259
C    21.28999901  12.07999992  50.75000000
C    19.93999863  12.20999908  50.40000153
C    15.73999977  11.94000053  49.91000366
C    15.14999962  12.42000008  51.11999893
C    13.82999992  12.76000023  51.17000198
C    23.65999985  11.51999950  50.06000137
H    23.91695404  11.59851360  51.11636734
H    19.48999977  12.51999950  52.45999908
H    17.78000069  11.14999962  47.97999954
H    20.22999954  10.90000057  47.19999695
H    22.49000168  11.10999966  47.67000198
H    21.60000038  12.18999958  51.79000092
H    13.47000027  13.35999966  52.01000214
H    23.90999985  10.51000023  49.72000122
H    24.23999977  12.13999939  49.36000061
S    12.46000099  12.01000023  47.54000092
C     9.77000046  12.67000008  48.26000214
C    11.14999962  12.55000019  48.61000061
C    11.61000061  12.86000061  49.91000366
C    10.71000004  13.27999973  50.83000183
C     9.30999947  13.52000046  50.52000046
C     8.38000011  13.99000072  51.47999573
C     7.09000015  14.09000015  51.19999695
C     6.54999971  13.59000015  49.93000031
C     7.39000034  13.02000046  49.02000046
C     8.82000065  13.02000046  49.25000000
C    13.02999973  12.53999901  50.06000137
C    13.60999966  12.05000019  48.88000107
C    14.98999977  11.82999992  48.80000305
C     5.12000036  13.96999931  49.65000153
H     4.92637396  13.63294601  48.63166809
H     9.47000027  12.44999981  47.23999786
H    10.98999977  13.47000027  51.86000061
H     8.76000023  14.35999966  52.43999863
H     6.42000008  14.65999985  51.83000183
H     7.00000000  12.77999973  48.02999878
H    15.55999947  11.67000008  47.88999939
H     5.12000036  15.05000019  49.81999969
H     4.35999966  13.56999969  50.33000183
