96

S    12.57999992  16.86000061  44.40999985
C     9.89000034  17.23999977  45.06999969
C    11.14999962  16.76000023  45.40000153
C    11.51000023  16.27000046  46.73999786
C    10.46000004  16.22999954  47.62000275
C     9.07999992  16.53000069  47.22999954
C     8.03999996  16.46999931  48.18999863
C     6.86999989  17.01000023  47.93000031
C     6.52999973  17.53999901  46.63999939
C     7.49000025  17.68000031  45.70999908
C     8.82999992  17.15999985  45.96000290
C    12.96000004  16.09000015  46.84000015
C    13.66000080  16.40999985  45.70000076
C    15.01999950  16.44000053  45.66999817
C     5.15999985  18.05999947  46.29000092
H     4.68206501  17.40826988  45.55861282
H     9.76000023  17.85000038  44.18000031
H    10.71000004  16.05999947  48.66000366
H     8.27000046  16.10999870  49.19000244
H     6.10000038  17.06999969  48.69999695
H     7.30999994  18.02000046  44.68999863
H    15.50000000  16.46000099  44.69999695
H     4.55000019  18.15999985  47.19999695
H     5.13000011  19.03000069  45.79000092
S    16.13999939  15.47999954  49.26000214
C    18.70000076  14.92000008  48.40000153
C    17.56000137  15.52000046  48.20000076
C    17.21999931  15.93999958  46.90999985
C    18.22000122  16.00000000  45.90999985
C    19.54000092  15.57000065  46.12999725
C    20.65999985  15.93000031  45.31999969
C    21.97000122  15.57999992  45.70000076
C    22.13000107  14.81999969  46.86000061
C    21.04999924  14.52999973  47.75000000
C    19.73999977  14.98999977  47.43999863
C    15.78999996  16.18999863  46.79999924
C    15.06999969  15.97000027  47.97999954
C    13.69999981  15.84000015  48.00000000
C    23.54000092  14.40999985  47.23999786
H    23.88788414  14.91407585  48.14165497
H    18.97999954  14.27999973  49.23999786
H    17.87999916  16.46000099  44.99000168
H    20.48000145  16.54999924  44.45000076
H    22.88999939  15.85000038  45.18000031
H    21.21999931  13.94999981  48.64999771
H    13.12999916  15.72000027  48.92000198
H    24.18999863  14.70000076  46.39999771
H    23.50000000  13.31999969  47.32999802
S    12.18000031  17.12000084  50.96000290
C     9.55000019  17.67000008  51.70999908
C    10.77000046  17.17000008  52.02000046
C    11.10999966  16.70999908  53.34999847
C    10.11999989  16.75000000  54.31000137
C     8.78999996  17.14999962  54.03999710
C     7.71000004  17.06999969  54.94999695
C     6.39999962  17.29999924  54.59000015
C     6.17000008  17.94000053  53.34000015
C     7.16000032  17.98999977  52.31999969
C     8.51000023  17.60000038  52.69000244
C    12.48000050  16.55999947  53.56999969
C    13.21000004  16.76000023  52.36000061
C    14.63999939  16.80999947  52.27000427
C     4.73000002  18.43000031  53.00000000
H     4.27917910  17.80743790  52.22716141
H     9.46000004  17.95999908  50.66999817
H    10.36999893  16.40999985  55.31999969
H     7.99000025  16.57999992  55.87999725
H     5.56999969  17.02000046  55.21999741
H     6.93000031  18.23999977  51.27999878
H    15.11000061  17.04000092  51.31999969
H     4.18000031  18.30999947  53.95000076
H     4.67999983  19.48999977  52.72999573
S    15.65999985  15.92000008  55.93999863
C    18.23999977  15.31000042  55.21999741
C    17.05000114  15.77999973  54.82999802
C    16.72999954  16.32999992  53.56999969
C    17.64999962  16.26000023  52.61000061
C    18.97999954  15.90999985  52.94000244
C    20.06000137  15.77000046  51.93000031
C    21.25999832  15.31000042  52.27000427
C    21.52000046  14.84000015  53.60000229
C    20.51000214  14.80000019  54.54999924
C    19.29000092  15.38000011  54.26000214
C    15.29999924  16.52000046  53.46000290
C    14.52000046  16.32999992  54.65999985
C    13.15000057  16.45000076  54.78000259
C    22.90999985  14.47000027  54.00000000
H    23.10792351  14.92946434  54.96841049
H    18.50000000  14.86999989  56.18000031
H    17.38999939  16.40999985  51.56000137
H    19.88000107  16.06999969  50.90000153
H    22.00000000  15.42000008  51.47999573
H    20.59000015  14.55999947  55.61000061
H    12.64000034  16.46999931  55.73999786
H    23.59999847  14.93000031  53.27999878
H    22.93000031  13.38000107  53.94000244
