96

S    12.20999908  16.87000084  44.27000046
C     9.59999943  17.40999985  45.05000305
C    10.85000038  16.95000076  45.34999847
C    11.23000050  16.47999954  46.69000244
C    10.26999950  16.50000000  47.69000244
C     9.00000000  16.97999954  47.38999939
C     7.96999979  16.98999977  48.37999725
C     6.69000053  17.34000015  47.97999954
C     6.38999987  17.64999962  46.68000031
C     7.34000015  17.86000061  45.75000000
C     8.67000008  17.51000023  46.04999924
C    12.71999931  16.45000076  46.86000061
C    13.36999989  16.51000023  45.59999847
C    14.68000031  16.23999977  45.50000000
C     5.05000019  18.20999908  46.36000061
H     4.75313997  17.80711937  45.39167023
H     9.38000011  17.64000130  44.01000214
H    10.38000011  16.05999947  48.68000031
H     8.01999950  16.54000092  49.36999893
H     5.91000032  17.31999969  48.73000336
H     7.17999983  18.43000031  44.84000397
H    15.06999969  16.36000061  44.48999786
H     4.33999968  17.82999992  47.09999847
H     5.03000021  19.29999924  46.38000107
S    15.86999989  15.32999992  49.20000076
C    18.47999954  14.80999947  48.40000153
C    17.22999954  15.27999973  48.08000183
C    16.86000061  15.70000076  46.73999786
C    17.86999893  15.73999977  45.73999786
C    19.18000031  15.43000031  46.06999969
C    20.27000046  15.53999996  45.15999603
C    21.54000092  15.34000015  45.59000015
C    21.90999985  14.85999966  46.81999969
C    20.88000107  14.70000076  47.74000168
C    19.47999954  14.94999981  47.39999771
C    15.43000031  15.95000076  46.63000107
C    14.78999996  15.88000107  47.88999939
C    13.45000076  16.15999985  48.02000046
C    23.36999893  14.55000019  47.15000153
H    23.63224411  14.89729500  48.14935684
H    18.86000061  14.47999954  49.36000061
H    17.72999954  16.21999931  44.78000259
H    20.27000046  15.67000008  44.08000183
H    22.30999947  15.48999977  44.84000397
H    21.15999985  14.46000004  48.75999832
H    12.94000053  16.11999893  48.96999741
H    23.95999908  15.11999989  46.42000198
H    23.51000023  13.47000027  47.00000000
S    11.92000008  17.11000061  50.94999695
C     9.35000038  17.75000000  51.86000061
C    10.57000065  17.28000069  52.12999725
C    10.97000027  16.79000092  53.43999863
C     9.98999977  16.87999916  54.45000076
C     8.69000053  17.34000015  54.16999817
C     7.57999992  17.19000053  55.04000092
C     6.28000021  17.53000069  54.71000290
C     5.97000027  18.01000023  53.37999725
C     7.02000046  18.04000092  52.47000122
C     8.34000015  17.79999924  52.84999847
C    12.36999989  16.43000031  53.50999832
C    12.98999977  16.46000099  52.27000427
C    14.40000057  16.39000130  52.11999893
C     4.55000019  18.47999954  53.02999878
H     4.21869469  18.06226730  52.07929611
H     9.06999969  17.85000038  50.80999756
H    10.19999981  16.42000008  55.40999985
H     7.76000023  16.73999977  56.00999832
H     5.42000008  17.56999969  55.37000275
H     6.81999969  18.25000000  51.42000198
H    14.85000038  16.59000015  51.14999771
H     3.82999992  18.26000023  53.82999802
H     4.51000023  19.56999969  52.91999817
S    15.54999924  16.00000000  55.96000290
C    18.25000000  15.60999966  55.18000031
C    16.95999908  15.88000107  54.84000397
C    16.60000038  16.13000107  53.43999863
C    17.64000130  16.21000099  52.50000000
C    18.94000053  15.82999992  52.81999969
C    19.95000076  16.01000023  51.81999969
C    21.25999832  15.77000046  52.12999725
C    21.54999924  15.27999973  53.46000290
C    20.58000183  15.15999985  54.43999863
C    19.26000023  15.57999992  54.16999817
C    15.17000008  16.21999931  53.29000092
C    14.55000019  16.14999962  54.55999756
C    13.12000084  16.22999954  54.65999985
C    22.96999931  15.18000031  53.92000198
H    23.14808655  15.30109787  54.98851395
H    18.55999947  15.57999992  56.22000122
H    17.38999939  16.39000130  51.45999908
H    19.63000107  16.38000107  50.84999847
H    22.01999855  16.00000000  51.38999939
H    20.92000008  15.01000023  55.45999908
H    12.64999962  16.51000023  55.59000015
H    23.57999992  15.85999966  53.31999969
H    23.39999962  14.19000053  53.70999908
