96

S    12.13999939  16.90999985  44.34999847
C     9.51000023  17.39999962  45.15999603
C    10.76000023  16.92000008  45.41999817
C    11.07999992  16.46999931  46.75000000
C    10.03999901  16.42000008  47.71999741
C     8.75000000  16.80999947  47.36999893
C     7.59999990  16.86000061  48.30999756
C     6.32999992  17.20000076  47.94000244
C     6.07999992  17.48999977  46.60999680
C     7.13000011  17.61000061  45.72000122
C     8.48999977  17.35000038  46.09000397
C    12.56999969  16.36999893  46.91999817
C    13.21000004  16.57999992  45.66999817
C    14.57999992  16.46000099  45.54999924
C     4.73000002  17.81999969  46.18000031
H     4.32936049  17.25769997  45.33655167
H     9.28999996  17.76000023  44.15999985
H    10.13000011  15.93000031  48.68000031
H     7.63000011  16.50000000  49.34000015
H     5.55000019  17.06999969  48.68000031
H     6.91999960  17.95999908  44.71000290
H    15.15999985  16.65999985  44.65999985
H     4.00000000  17.76000023  47.00000000
H     4.75000000  18.88000107  45.86999893
S    15.82999992  15.82999992  49.34999847
C    18.38000107  15.11000061  48.57999802
C    17.13000107  15.62999916  48.25000000
C    16.75000000  16.06999969  46.88000107
C    17.76000023  16.17000008  45.91999817
C    19.03000069  15.71000004  46.26999664
C    20.09000015  15.78999996  45.27000046
C    21.35999870  15.24000072  45.48999786
C    21.65999985  14.73000050  46.83000183
C    20.69999886  14.82999992  47.80000305
C    19.37999916  15.21999931  47.61000061
C    15.34000015  16.22999954  46.79000092
C    14.68999958  16.15999985  48.02999878
C    13.30000019  16.11999893  48.11000061
C    23.02999878  14.32999992  47.22000122
H    23.33515549  14.68370438  48.20482254
H    18.71999931  14.70999908  49.54000092
H    17.63000107  16.56999969  44.92000198
H    19.88000107  16.39999962  44.40000153
H    22.18000031  15.39999962  44.80999756
H    20.86999893  14.52999973  48.82999802
H    12.76999950  15.77000046  48.99000168
H    23.74000168  14.63999939  46.45000076
H    23.09999847  13.23999977  47.32999802
S    15.80999947  13.07000065  52.15000153
C    18.46999931  12.53000069  51.36000061
C    17.13000107  12.61999989  51.06999969
C    16.68000031  12.25000000  49.72000122
C    17.53999901  11.77000046  48.72000122
C    18.88000107  11.69999981  49.05000305
C    19.84000015  11.16000080  48.13999939
C    21.09999847  10.88999939  48.47999954
C    21.60000038  11.16000080  49.79000092
C    20.76999855  11.79999924  50.68000031
C    19.40000153  12.05999947  50.35999680
C    15.24000072  12.38999939  49.65999985
C    14.67000008  12.79000092  50.86999893
C    13.30000019  13.05999947  50.96000290
C    23.02999878  10.77999973  50.14999771
H    23.40808487  11.18609047  51.08821106
H    18.85000038  12.71000004  52.36000061
H    17.19000053  11.46000004  47.74000168
H    19.40999985  10.85999966  47.19999695
H    21.75000000  10.36999893  47.78999710
H    21.04999924  12.02000046  51.70999908
H    12.89000034  13.22999954  51.95000076
H    23.02999878   9.68999958  50.26000214
H    23.77000046  11.07999992  49.38999939
S    12.02000046  12.56000042  47.22000122
C     9.31999969  13.15999985  48.02000046
C    10.62999916  12.96000004  48.29000092
C    11.05000019  13.27000046  49.65000153
C    10.19999981  13.76000023  50.61000061
C     8.82999992  13.80000019  50.34999847
C     7.86999989  14.15999985  51.36000061
C     6.53999996  14.13000011  51.14999771
C     6.10000038  13.80000019  49.86999893
C     6.94000006  13.53000069  48.90999603
C     8.34000015  13.48000050  49.05000305
C    12.46999931  12.97999954  49.79999924
C    13.15000057  12.60000038  48.57999802
C    14.44000053  12.25999928  48.50000000
C     4.67000008  13.67000008  49.52999878
H     4.45563698  13.76289082  48.46532822
H     8.85000038  12.90999985  47.06999969
H    10.54999924  13.90999985  51.62000275
H     8.30000019  14.50000000  52.29000092
H     5.78999996  14.13000011  51.93999863
H     6.52999973  13.28999996  47.93000031
H    14.85000038  12.01000023  47.52999878
H     4.19000006  14.56999969  49.95999908
H     4.21000004  12.76000023  49.93999863
