96

S    12.51000023  16.69000053  44.40000153
C     9.85000038  17.13000107  45.13999939
C    11.10999966  16.70999908  45.44000244
C    11.39999962  16.29999924  46.79999924
C    10.39000034  16.21999931  47.77000046
C     9.09000015  16.53000069  47.38999939
C     8.05000019  16.13000107  48.20999908
C     6.71999979  16.34000015  47.88999939
C     6.40999985  16.88999939  46.60999680
C     7.44999981  17.10000038  45.68999863
C     8.84000015  16.97999954  46.06999969
C    12.79999924  16.04999924  46.93000031
C    13.50999928  16.21000099  45.66999817
C    14.85999966  16.06999969  45.58000183
C     5.03999996  17.28999901  46.17000198
H     4.63946867  16.71781158  45.33317566
H     9.80000019  17.28999901  44.06000137
H    10.59000015  15.73999977  48.73000336
H     8.19000053  15.77000046  49.22999954
H     6.00000000  16.46999931  48.68999863
H     7.23999977  17.43999863  44.68000031
H    15.24000072  16.18000031  44.56999969
H     4.34999990  17.13000107  47.00000000
H     5.03999996  18.38000107  45.98999786
S    15.95999908  15.36999893  49.29000092
C    18.61999893  14.70999908  48.48999786
C    17.36999893  15.19999981  48.20000076
C    17.05000114  15.57999992  46.84000015
C    18.02000046  15.69000053  45.97000122
C    19.34999847  15.24000072  46.17000198
C    20.42000008  15.31999969  45.22999573
C    21.70999908  14.92000008  45.47000122
C    21.94000053  14.39000034  46.79000092
C    20.95000076  14.32000065  47.75000000
C    19.62000084  14.68999958  47.49000168
C    15.64000034  15.80000019  46.68000031
C    14.96999931  15.69000053  47.90999985
C    13.56999969  15.82999992  48.06000137
C    23.31999969  13.94999981  47.12999725
H    23.58342743  14.26464844  48.13980103
H    18.89999962  14.32000065  49.47000122
H    17.76000023  16.06999969  44.98000336
H    20.09000015  15.75000000  44.27999878
H    22.47999954  14.75999928  44.72999954
H    21.09999847  13.93000031  48.75000000
H    13.05999947  15.80999947  49.01000214
H    24.02000046  14.28999996  46.36000061
H    23.42000008  12.86000061  47.18000031
S    16.00000000  13.15999985  52.23999786
C    18.65999985  12.36999989  51.59000015
C    17.29999924  12.41000080  51.30000305
C    16.84000015  11.97999954  50.04000092
C    17.68000031  11.52999973  49.06999969
C    19.06999969  11.51999950  49.26000214
C    20.00999832  11.05999947  48.26000214
C    21.28999901  10.88999939  48.57999802
C    21.80999947  11.18999958  49.86999893
C    21.00000000  11.77000046  50.83000183
C    19.55999947  11.96000004  50.54999924
C    15.39999962  12.13999939  49.89999771
C    14.81999969  12.76000023  51.03000259
C    13.53999996  13.14000034  51.03000259
C    23.34000015  10.88000107  50.15999603
H    23.65163994  11.24830055  51.13740921
H    18.97999954  12.64000034  52.58999634
H    17.34000015  11.09000015  48.13000107
H    19.54000092  10.62999916  47.36999893
H    21.94000053  10.44999981  47.83000183
H    21.35000038  12.06999969  51.81000137
H    13.09000015  13.68999958  51.84999847
H    23.45999908   9.78999996  50.10000229
H    23.92000008  11.13999939  49.27999878
S    12.02000046  11.73999977  47.60000229
C     9.40999985  12.43000031  48.33000183
C    10.75000000  12.38999939  48.61999893
C    11.30000019  12.96000004  49.86000061
C    10.48999977  13.42000008  50.84999847
C     9.06999969  13.40999985  50.56999969
C     8.09000015  13.92000008  51.52000046
C     6.74000025  14.01999950  51.20999908
C     6.23000050  13.48000050  49.91000366
C     7.14999962  12.90999985  49.02999878
C     8.52999973  12.86999893  49.36000061
C    12.76999950  12.74000072  49.95999908
C    13.27000046  12.15999985  48.81000137
C    14.63999939  11.90999985  48.76999664
C     4.72000027  13.50999928  49.54999924
H     4.47138023  13.25427723  48.52000046
H     8.97999954  12.15000057  47.36999893
H    10.98000050  13.60999966  51.79999924
H     8.56000042  14.26000023  52.43000031
H     6.00000000  14.37000084  51.91999817
H     6.94000006  12.51999950  48.04000092
H    15.03000069  11.33999920  47.94000244
H     4.28999996  14.52000046  49.62999725
H     4.23000002  12.94000053  50.34999847
