96

S    12.30999947  16.86000061  44.08000183
C     9.67000008  17.22999954  44.89999771
C    10.88000107  16.69000053  45.12000275
C    11.21999931  16.28999901  46.51000214
C    10.26999950  16.14999962  47.49000168
C     8.96000004  16.51000023  47.18000031
C     7.88999987  16.51000023  48.09999847
C     6.70000029  17.14999962  47.84000015
C     6.51000023  17.70000076  46.58000183
C     7.49000025  17.81999969  45.68999863
C     8.67999935  17.13000107  45.93000031
C    12.69999981  16.22999954  46.60999680
C    13.34000015  16.57999992  45.43000031
C    14.72000027  16.64999962  45.43000031
C     5.05000019  18.15999985  46.27999878
H     4.54907656  17.43723869  45.63595581
H     9.48999977  17.65999985  43.90999603
H    10.55999947  15.82999992  48.48999786
H     8.10999966  16.18000031  49.12000275
H     5.97000027  17.04000092  48.62999725
H     7.25000000  18.38000107  44.79000092
H    15.19000053  16.88999939  44.47999954
H     4.51000023  18.29000092  47.22999954
H     5.05000019  19.14999962  45.80999756
S    15.92000008  15.43000031  49.05000305
C    18.54999924  15.03000069  48.26000214
C    17.28999901  15.46000004  47.88000107
C    16.87999916  15.90999985  46.62000275
C    17.97000122  16.13999939  45.73999786
C    19.32999992  15.77000046  46.10000229
C    20.39999962  15.75000000  45.15999603
C    21.70000076  15.34999943  45.47000122
C    21.94000053  14.73000050  46.73999786
C    20.86000061  14.55000019  47.58999634
C    19.55000114  15.11000061  47.35000229
C    15.44000053  16.18000031  46.55000305
C    14.75999928  15.80999947  47.71999741
C    13.40000057  15.88000107  47.77999878
C    23.29000092  14.26000023  47.09000015
H    23.82496643  14.89223289  47.79865646
H    18.63999939  14.52999973  49.22000122
H    17.65999985  16.57999992  44.79999924
H    20.10999870  16.09000015  44.16999817
H    22.43999863  15.18000031  44.69999695
H    20.86999893  13.89000034  48.44999695
H    12.79999924  15.76000023  48.68000031
H    23.90000153  14.07999992  46.18999863
H    23.12000084  13.27999973  47.56000137
S    11.57999992  17.20000076  51.00999832
C     9.00000000  17.65999985  51.76000214
C    10.29000092  17.20999908  52.16999817
C    10.62000084  17.01000023  53.54000092
C     9.64999962  17.01000023  54.52999878
C     8.30999947  17.38000107  54.13999939
C     7.23000002  17.34000015  55.11000061
C     5.92000008  17.70000076  54.72999954
C     5.64000034  18.15000153  53.44999695
C     6.67000008  18.12999916  52.45999908
C     8.01999950  17.78000069  52.77999878
C    12.06999969  16.84000015  53.60000229
C    12.75000000  16.93000031  52.38999939
C    14.17000008  16.87999916  52.32999802
C     4.30000019  18.52000046  52.94000244
H     4.13013029  18.01039124  51.99156189
H     8.76000023  17.93000031  50.72999954
H     9.75000000  16.44000053  55.44000244
H     7.39000034  17.07999992  56.14999771
H     5.19000006  17.61000061  55.52999878
H     6.57999992  18.38000107  51.40999603
H    14.65000057  16.73999977  51.36000061
H     3.56999993  18.15999985  53.67000198
H     4.21000004  19.61000061  52.97000122
S    15.19999981  15.82999992  56.00999832
C    17.86000061  15.54999924  55.51000214
C    16.62999916  15.92000008  55.02999878
C    16.32999992  16.46999931  53.72000122
C    17.46000099  16.50000000  52.85999680
C    18.71000099  15.95000076  53.26000214
C    19.63000107  15.70000076  52.21000290
C    20.81000137  15.03999901  52.50999832
C    21.04000092  14.56999969  53.81000137
C    20.07999802  14.65999985  54.85000229
C    18.93000031  15.39000034  54.56999969
C    14.88000011  16.65999985  53.52000427
C    14.14999962  16.29999924  54.66999817
C    12.77999973  16.51000023  54.68999863
C    22.46000099  14.09999943  54.13000107
H    22.90872955  14.75907326  54.87321472
H    17.97999954  15.31999969  56.56000137
H    17.25000000  16.65999985  51.79999924
H    19.59000015  16.18999863  51.24000168
H    21.64999962  14.98999977  51.81999969
H    20.29000092  14.18000031  55.80999756
H    12.31999969  16.11999893  55.59000015
H    22.96999931  14.01999950  53.15999985
H    22.32999992  13.05999947  54.45000076
