96

S    11.89000034  17.52000046  44.05000305
C     9.34000015  17.93000031  44.94999695
C    10.51000023  17.36999893  45.22999573
C    10.90000057  16.88999939  46.52999878
C     9.92000008  16.79000092  47.48000336
C     8.67000008  17.28000069  47.15999985
C     7.65999985  17.32999992  48.18000031
C     6.37000036  17.72999954  47.95999908
C     6.00000000  18.18000031  46.70000076
C     6.97000027  18.30000114  45.66999817
C     8.31999969  17.88999939  45.89000320
C    12.28999996  16.67000008  46.59000015
C    12.97999954  17.00000000  45.40999985
C    14.34999943  16.87999916  45.33000183
C     4.56999969  18.45999908  46.31999969
H     4.28088284  17.99296379  45.37851715
H     9.30999947  18.44000053  43.99000168
H    10.14999962  16.39999962  48.47000122
H     7.82999992  16.95999908  49.19000244
H     5.59999990  17.64000130  48.72000122
H     6.75000000  18.71000099  44.68000031
H    14.85999966  17.02999878  44.38000107
H     4.02999973  18.11000061  47.19999695
H     4.55999994  19.55999947  46.24000168
S    15.44999981  15.85999966  49.01000214
C    18.19000053  15.59999943  48.41999817
C    16.90000153  15.97000027  48.04999924
C    16.53000069  16.39999962  46.73999786
C    17.42000008  16.36999893  45.72999954
C    18.78999901  16.07999992  46.09000397
C    19.77000046  15.95999908  45.13000107
C    21.09000015  15.55999947  45.37000275
C    21.40999985  15.14999962  46.68000031
C    20.55999947  15.32999992  47.72999573
C    19.19999886  15.67000008  47.42000198
C    15.08999920  16.54999924  46.53999710
C    14.37999916  16.23999977  47.70000076
C    13.01000023  16.20000076  47.70000076
C    22.77000046  14.65000057  46.98999786
H    23.15194702  15.16887093  47.86919785
H    18.35000038  15.26000023  49.43999863
H    17.10000038  16.47999954  44.69999695
H    19.50000000  16.03999901  44.08000183
H    21.70999908  15.31999969  44.51000214
H    20.86000061  15.06000042  48.73000336
H    12.51000023  15.93999958  48.62999725
H    23.32999992  14.78999996  46.04999924
H    22.60999870  13.56999969  47.05999756
S    16.36000061  13.45000076  52.02999878
C    18.98999977  12.90999985  51.25999832
C    17.61000061  12.77999973  51.00999832
C    17.07999992  12.35000038  49.75000000
C    18.00000000  11.76000023  48.86000061
C    19.40000153  11.82000065  49.13000107
C    20.29999924  11.28000069  48.20000076
C    21.63999939  11.16000080  48.44999695
C    22.11999893  11.64999962  49.65999985
C    21.27000046  12.28999996  50.54000092
C    19.90999985  12.35000038  50.38000107
C    15.62999916  12.46000099  49.65999985
C    15.07999992  12.96000004  50.90000153
C    13.76000023  13.43999958  50.91999817
C    23.47999954  11.23999977  50.18000031
H    23.72693062  11.66331196  51.15361786
H    19.40999985  13.25000000  52.21000290
H    17.65999985  11.10000038  48.06000137
H    19.86999893  10.85000038  47.29999924
H    22.23999977  10.47000027  47.85999680
H    21.57999992  12.65999985  51.51000214
H    13.42000008  14.07999992  51.73999786
H    23.65999985  10.15999985  50.12000275
H    24.17000008  11.72000027  49.47000122
S    12.25999928  12.38000011  47.42000198
C     9.59999943  13.14000034  48.09999847
C    10.95000076  13.12999916  48.40000153
C    11.51999950  13.55999947  49.66999817
C    10.62000084  13.90999985  50.65000153
C     9.22999954  13.81999969  50.43000031
C     8.28999996  14.19000053  51.46999741
C     6.93000031  14.22000027  51.20999908
C     6.40999985  13.86000061  49.99000168
C     7.26000023  13.43000031  48.97999573
C     8.67000008  13.42000008  49.15000153
C    12.94000053  13.25000000  49.79999924
C    13.45999908  12.57999992  48.70999908
C    14.75000000  12.17000008  48.61999893
C     4.90999985  14.07999992  49.65999985
H     4.71235085  13.83999729  48.61528397
H     9.23999977  12.92000008  47.09999847
H    10.97000027  14.01999950  51.66999817
H     8.71000004  14.56999969  52.38999939
H     6.30999994  14.72000027  51.93999863
H     6.88000011  13.30999947  47.97000122
H    15.13000011  11.56999969  47.80000305
H     4.75000000  15.14000034  49.91000366
H     4.26999998  13.55999947  50.38000107
