96

S    12.56999969  16.69999886  44.02999878
C     9.76000023  16.90000153  44.61000061
C    11.10999966  16.59000015  45.00999832
C    11.44999981  16.26000023  46.32999802
C    10.46000004  16.07999992  47.28000259
C     9.15000057  16.34000015  46.97000122
C     8.13000011  16.28999901  47.93000031
C     6.83000040  16.73999977  47.75000000
C     6.48000002  17.39999962  46.49000168
C     7.46999979  17.42000008  45.52999878
C     8.80000019  16.90000153  45.65999985
C    12.89999962  16.21000099  46.59000015
C    13.63000011  16.39000130  45.44000244
C    14.98000050  16.29999924  45.37000275
C     5.12000036  17.86999893  46.03000259
H     4.74815035  17.20496178  45.25054550
H     9.61999989  17.21999931  43.57999802
H    10.54999924  15.65999985  48.27999878
H     8.39999962  15.95999908  48.93000031
H     6.10000038  16.55999947  48.53000259
H     7.23000002  17.89999962  44.58000183
H    15.54999924  16.57999992  44.48999786
H     4.42000008  17.93000031  46.88000107
H     5.05999994  18.89000130  45.65000153
S    15.90000057  15.27999973  49.08000183
C    18.60999870  15.01999950  48.56999969
C    17.35999870  15.29000092  48.09999847
C    17.11000061  15.69000053  46.73999786
C    18.15000153  15.70000076  45.80999756
C    19.47999954  15.29000092  46.24000168
C    20.56999969  15.22999954  45.35999680
C    21.84999847  14.84000015  45.75000000
C    22.04999924  14.48999977  47.09999847
C    21.02000046  14.63000107  48.02000046
C    19.75000000  14.96999931  47.68000031
C    15.69000053  16.03000069  46.53999710
C    14.98999977  15.77999973  47.70000076
C    13.60000038  15.80000019  47.70999908
C    23.39999962  14.04000092  47.51999664
H    23.70950890  14.56960297  48.42100906
H    18.65999985  14.73000050  49.61000061
H    18.13999939  15.90999985  44.75000000
H    20.35000038  15.47999954  44.31999969
H    22.57999802  14.78000069  44.95999908
H    21.15999985  14.27999973  49.02999878
H    13.09000015  15.43000031  48.60000229
H    24.05999947  14.23999977  46.66999817
H    23.44000053  12.94999981  47.67000198
S    12.20000076  16.95999908  51.06999969
C     9.51000023  17.05999947  51.65999985
C    10.78999996  16.87999916  52.11000061
C    11.10999966  16.50000000  53.43000031
C    10.07999992  16.31999969  54.34000015
C     8.75000000  16.55999947  53.97999573
C     7.72000027  16.48999977  54.92000198
C     6.48999977  16.87999916  54.61999893
C     6.25000000  17.53000069  53.37999725
C     7.25000000  17.63000107  52.39999771
C     8.52999973  17.10000038  52.63999939
C    12.53999901  16.54000092  53.68999863
C    13.31999969  16.75000000  52.49000168
C    14.70000076  16.77999878  52.43000031
C     4.80999994  18.00000000  53.04999924
H     4.45660973  17.43457603  52.18772888
H     9.39000034  17.28999901  50.61000061
H    10.25000000  16.28000069  55.41999817
H     8.17000008  16.20000076  55.86999893
H     5.60999966  16.77000046  55.26000214
H     6.96000004  17.86000061  51.38000107
H    15.19999981  17.05000114  51.50000000
H     4.11000013  17.71999931  53.85000229
H     4.73000002  19.07999992  52.93000031
S    15.70000076  15.52000046  56.06999969
C    18.30000114  15.06000042  55.37000275
C    17.05999947  15.52000046  55.08999634
C    16.80999947  16.13999939  53.81000137
C    17.79000092  16.26000023  52.88000107
C    19.03000069  15.67999935  53.11999893
C    20.03000069  15.65000057  52.12999725
C    21.25999832  15.10000038  52.38999939
C    21.55999947  14.65000057  53.68999863
C    20.55999947  14.61999989  54.62999725
C    19.32999992  15.21000004  54.43000031
C    15.39999962  16.46000099  53.59000397
C    14.68000031  16.13999939  54.72999954
C    13.30000019  16.25000000  54.80999756
C    23.03999901  14.42999935  54.03999710
H    23.31456947  14.95023537  54.95763779
H    18.45000076  14.50000000  56.29000092
H    17.56999969  16.75000000  51.93999863
H    19.85000038  16.17000008  51.19999695
H    22.04999924  14.96999931  51.65999985
H    20.62999916  13.99000072  55.52000046
H    12.88000011  15.85000038  55.72999954
H    23.64999962  14.75999928  53.18999863
H    23.26000023  13.35999966  54.08000183
