96

S    12.06999969  16.79000092  44.16999817
C     9.42000008  17.19000053  44.94999695
C    10.65000057  16.75000000  45.22999573
C    10.88999939  16.20000076  46.52999878
C     9.86999989  16.10000038  47.47000122
C     8.60000038  16.79000092  47.22000122
C     7.48000050  16.72999954  48.11000061
C     6.30999994  17.17000008  47.67000198
C     6.06999969  17.61000061  46.38999939
C     7.09999990  17.77000046  45.47999954
C     8.38000011  17.29999924  45.87999725
C    12.31999969  16.07999992  46.68000031
C    13.02999973  16.39000130  45.52000046
C    14.42000008  16.34000015  45.45000076
C     4.61000013  17.82999992  45.96000290
H     4.34929609  17.20290184  45.10742950
H     9.22999954  17.48999977  43.92000198
H    10.01999950  15.72999954  48.47999954
H     7.55999994  16.07999992  48.96999741
H     5.44000053  16.97999954  48.29000092
H     6.84000015  18.07999992  44.47000122
H    14.93000031  16.31000137  44.48999786
H     4.01999998  17.56000137  46.84999847
H     4.59000015  18.90999985  45.79999924
S    15.60999966  15.22999954  49.18000031
C    18.26000023  15.11000061  48.44999695
C    16.92000008  15.31000042  48.06999969
C    16.55999947  15.72999954  46.72000122
C    17.59000015  15.78999996  45.81999969
C    18.96000099  15.52999973  46.24000168
C    20.05000114  15.48999977  45.35999680
C    21.31999969  15.22999954  45.73999786
C    21.70000076  14.92000008  47.06999969
C    20.65999985  14.84000015  47.94000244
C    19.29000092  15.19999981  47.55000305
C    15.14000034  15.93000031  46.60999680
C    14.48999977  15.69000053  47.85999680
C    13.10999966  15.67999935  47.84999847
C    23.02999878  14.29999924  47.43999863
H    23.44299889  14.52786160  48.42265320
H    18.38000107  14.75999928  49.47000122
H    17.35000038  15.93999958  44.77000427
H    19.78999901  15.50000000  44.31000137
H    22.09000015  15.03999901  45.00000000
H    20.81999969  14.32999992  48.88999939
H    12.63000011  15.11000061  48.64999771
H    23.68000031  14.75999928  46.69000244
H    23.19999886  13.22000027  47.29999924
S    15.97000027  12.46000099  51.90999985
C    18.57999992  12.05999947  51.00000000
C    17.27000046  12.00000000  50.72999954
C    16.76000023  11.54999924  49.45999908
C    17.68000031  11.11999989  48.46000290
C    19.04999924  11.13999939  48.75000000
C    20.06000137  10.67999935  47.83000183
C    21.35999870  10.57999992  48.22999954
C    21.76000214  10.82999992  49.59000015
C    20.79999924  11.43000031  50.47000122
C    19.45999908  11.49000072  50.11000061
C    15.29999924  11.64999962  49.43999863
C    14.75000000  12.18999958  50.65000153
C    13.42000008  12.76000023  50.73999786
C    23.21000099  10.70000076  49.99000168
H    23.44299889  11.17328072  50.94384384
H    18.78999901  12.31999969  52.02999878
H    17.36999893  10.62999916  47.54000092
H    19.75000000  10.39999962  46.81999969
H    22.10000038  10.21999931  47.51999664
H    21.05999947  11.90000057  51.42000198
H    13.07000065  13.02999973  51.72999954
H    23.40999985   9.61999989  50.06000137
H    23.92000008  11.00999928  49.22000122
S    11.89000034  11.80999947  47.19999695
C     9.30000019  12.53999901  47.93000031
C    10.60999966  12.42000008  48.26000214
C    11.13999939  12.92000008  49.52999878
C    10.24000072  13.34000015  50.41999817
C     8.88000011  13.42000008  50.11000061
C     7.99000025  13.85000038  51.06999969
C     6.61000013  13.68000031  50.86999893
C     6.11999989  13.50999928  49.58000183
C     7.03000021  13.21000004  48.54000092
C     8.40999985  13.04999924  48.82999802
C    12.57999992  12.64000034  49.62999725
C    13.14000034  12.07999992  48.41999817
C    14.42999935  11.56000042  48.34999847
C     4.65999985  13.61999989  49.36999893
H     4.36693859  13.37953949  48.34804153
H     9.00000000  12.30000019  46.90999985
H    10.42000008  13.68999958  51.43000031
H     8.40999985  14.30999947  51.95999908
H     5.86999989  13.92000008  51.63000107
H     6.71000004  12.94000053  47.54000092
H    14.78000069  11.11999989  47.42000198
H     4.42000008  14.67000008  49.54999924
H     4.09000015  13.01000023  50.07999802
