96

S    11.97000027  16.84000015  43.95999908
C     9.43000031  17.46000099  44.71000290
C    10.59000015  16.80999947  45.05000305
C    10.84000015  16.21999931  46.30000305
C     9.84000015  16.22999954  47.21000290
C     8.56000042  16.72000122  46.81000137
C     7.40999985  16.45000076  47.62000275
C     6.19999981  16.94000053  47.29999924
C     5.98000002  17.64000130  46.07999802
C     7.03999996  17.82999992  45.25000000
C     8.34999943  17.38000107  45.54999924
C    12.22000027  16.05999947  46.50000000
C    12.96000004  16.21999931  45.24000168
C    14.32000065  16.13999939  45.15999603
C     4.63999987  18.02999878  45.58000183
H     4.26884747  17.37873268  44.78867722
H     9.34000015  17.85000038  43.69999695
H    10.01999950  15.73999977  48.16999817
H     7.50000000  15.92000008  48.56999969
H     5.33999968  16.84000015  47.95999908
H     6.84000015  18.45000076  44.38000107
H    14.89999962  16.40999985  44.27999878
H     4.00999975  18.04000092  46.47999573
H     4.63999987  19.05999947  45.20000076
S    15.34999943  15.43000031  49.02000046
C    17.94999886  15.06000042  48.43000031
C    16.72000122  15.47000027  48.00000000
C    16.42000008  15.85999966  46.63999939
C    17.50000000  15.97000027  45.76000214
C    18.81999969  15.47000027  46.12999725
C    19.95000076  15.44999981  45.21999741
C    21.18000031  14.92000008  45.63999939
C    21.37000084  14.42999935  46.95000076
C    20.36000061  14.44000053  47.80000305
C    19.03000069  14.96999931  47.50999832
C    14.98999977  15.86999989  46.37000275
C    14.26000023  15.70000076  47.60000229
C    12.89999962  15.80999947  47.69000244
C    22.69000053  13.94000053  47.45999908
H    23.03709602  14.58460712  48.26753235
H    18.04000092  14.68000031  49.43999863
H    17.26000023  16.25000000  44.72999954
H    19.82999992  15.97000027  44.27000046
H    22.10000038  15.01000023  45.07999802
H    20.42000008  14.15999985  48.85000229
H    12.36999989  15.52999973  48.59000397
H    23.31999969  14.09000015  46.58000183
H    22.60999870  12.88000011  47.71999741
S    15.97000027  12.77999973  52.25000000
C    18.57999992  12.13999939  51.53999710
C    17.21999931  12.25000000  51.18999863
C    16.76000023  11.77999973  49.93999863
C    17.71999931  11.36999989  49.01000214
C    19.09000015  11.26999950  49.33000183
C    20.03999901  10.85999966  48.39000320
C    21.35999870  10.72000027  48.70999908
C    21.77000046  11.02000046  50.01999664
C    20.88000107  11.61999893  50.93000031
C    19.52999878  11.72000027  50.63000107
C    15.36000061  12.15999985  49.79999924
C    14.81999969  12.63000011  50.98999786
C    13.48000050  13.17000008  50.97999954
C    23.23999786  10.77999973  50.34999847
H    23.58247948  11.15815544  51.31322479
H    18.96000099  12.58999920  52.44999695
H    17.39999962  10.92000008  48.06999969
H    19.79999924  10.59999943  47.36000061
H    21.98999786  10.36999893  47.90000153
H    21.14000130  11.78999996  51.97000122
H    12.97999954  13.43000031  51.90999985
H    23.35000038   9.71000004  50.13999939
H    23.88999939  11.26999950  49.61000061
S    12.05999947  12.17000008  47.47000122
C     9.43000031  12.75000000  48.11000061
C    10.72999954  12.68000031  48.52000427
C    11.23999977  13.09000015  49.79999924
C    10.36999893  13.66000080  50.68999863
C     8.97999954  13.68999958  50.43000031
C     7.99000025  14.19999981  51.31000137
C     6.67000008  14.34000015  50.97000122
C     6.25999975  13.71999931  49.75999832
C     7.13999987  13.22999954  48.86000061
C     8.52999973  13.17000008  49.15999985
C    12.67000008  13.02999973  49.84000397
C    13.23999977  12.51000023  48.68999863
C    14.60000038  12.09000015  48.61000061
C     4.84000015  13.99000072  49.38000107
H     4.65824461  13.39384174  48.48576355
H     8.92000008  12.51000023  47.18000031
H    10.69000053  14.06000042  51.65000153
H     8.32999992  14.47000027  52.30999756
H     6.01999998  14.82999992  51.69000244
H     6.77999973  12.74000072  47.97000122
H    15.05000019  11.69999981  47.70000076
H     4.53999996  14.98999977  49.05000305
H     4.28999996  13.68999958  50.27999878
