96

S    12.25000000  16.73999977  44.02999878
C     9.72999954  17.36999893  44.86999893
C    10.95999908  16.95000076  45.18000031
C    11.28000069  16.59000015  46.56000137
C    10.27999973  16.47999954  47.51999664
C     8.97000027  16.88999939  47.18000031
C     7.86000013  16.82999992  48.11000061
C     6.70000029  17.35999870  47.77000046
C     6.43000031  17.88999939  46.45000076
C     7.46000004  17.81999969  45.50000000
C     8.71000004  17.36999893  45.84999847
C    12.69999981  16.34000015  46.65000153
C    13.31999969  16.46000099  45.38999939
C    14.70000076  16.28000069  45.21999741
C     5.07000017  18.36000061  46.06999969
H     4.63569403  17.74769974  45.27970505
H     9.52999973  17.85000038  43.90999603
H    10.47000027  16.32999992  48.57999802
H     8.05000019  16.44000053  49.10999680
H     5.82000017  17.29999924  48.40000153
H     7.31999969  18.22999954  44.51000214
H    15.11999989  16.36000061  44.22000122
H     4.39000034  18.22999954  46.91999817
H     5.03000021  19.45000076  45.97000122
S    16.03999901  16.15999985  48.96999741
C    18.61999893  15.90999985  48.27999878
C    17.34000015  16.10000038  47.90000153
C    17.01000023  16.20000076  46.52000046
C    18.06999969  16.13999939  45.56000137
C    19.40000153  15.85999966  46.00000000
C    20.42000008  15.69000053  45.02999878
C    21.61000061  15.21999931  45.47000122
C    21.86000061  15.01999950  46.81000137
C    20.86999893  15.27999973  47.71999741
C    19.62000084  15.71000004  47.36999893
C    15.57000065  16.14999962  46.39999771
C    14.88999939  16.09000015  47.65999603
C    13.47000027  16.13000107  47.83000183
C    23.29000092  14.67000008  47.30999756
H    23.59476089  15.34878540  48.10653305
H    18.72999954  15.73999977  49.34999847
H    18.01000023  16.03999901  44.47999954
H    20.20000076  15.90000057  43.99000168
H    22.39999962  15.15999985  44.72000122
H    21.07999992  15.08999920  48.75999832
H    13.00000000  16.05999947  48.81000137
H    24.02000046  14.73000050  46.50000000
H    23.38999939  13.64999962  47.70000076
S    11.90999985  17.38999939  50.84000015
C     9.15000057  17.56999969  51.45000076
C    10.42000008  17.28999901  51.83000183
C    10.80999947  16.90999985  53.18000031
C     9.81000042  16.72000122  54.08000183
C     8.50000000  17.20000076  53.81000137
C     7.44999981  17.19000053  54.81999969
C     6.15000010  17.63000107  54.54999924
C     5.88000011  18.18000031  53.27000046
C     6.91999960  18.22000122  52.28000259
C     8.14000034  17.67000008  52.48000336
C    12.23999977  16.72999954  53.34999847
C    12.96000004  17.09000015  52.15000153
C    14.35999966  17.20999908  52.11999893
C     4.48000002  18.38000107  52.90999985
H     4.13867998  17.71869278  52.11358643
H     9.01000023  17.97999954  50.45000076
H    10.01999950  16.31000137  55.06000137
H     7.76999998  16.87000084  55.80999756
H     5.44000053  17.70000076  55.37000275
H     6.74000025  18.54999924  51.25999832
H    14.89999962  17.40999985  51.18999863
H     3.88000011  18.20000076  53.81000137
H     4.32999992  19.44000053  52.67000198
S    15.46000004  16.14999962  55.84999847
C    18.15000153  16.02000046  55.12000275
C    16.87000084  16.21000099  54.72000122
C    16.47999954  16.57999992  53.46000290
C    17.47999954  16.72000122  52.52999878
C    18.86000061  16.57999992  52.83000183
C    19.89999962  16.64999962  51.86000061
C    21.14000130  16.15999985  52.18000031
C    21.52000046  15.72999954  53.48999786
C    20.46999931  15.57999992  54.43999863
C    19.19000053  16.10999870  54.15000153
C    15.05000019  16.82999992  53.34000015
C    14.34000015  16.56999969  54.48999786
C    12.97000027  16.38000107  54.47000122
C    22.86000061  15.15999985  53.70999908
H    23.31359863  15.44349861  54.65972519
H    18.15999985  15.43000031  56.03000259
H    17.14999962  17.11000061  51.56999969
H    19.72999954  17.02000046  50.84999847
H    21.93000031  16.29999924  51.45000076
H    20.72999954  15.08999920  55.37000275
H    12.42000008  16.13999939  55.38000107
H    23.52000046  15.36000061  52.85999680
H    22.70000076  14.07999992  53.63999939
