96

S    12.15000057  16.72000122  44.31000137
C     9.56999969  17.22999954  45.13999939
C    10.75000000  16.69000053  45.40000153
C    11.05000019  16.20000076  46.68000031
C    10.06000042  16.10000038  47.63000107
C     8.76000023  16.63999939  47.39999771
C     7.69000006  16.68000031  48.36000061
C     6.48000002  17.23999977  48.02000046
C     6.37000036  17.86000061  46.75000000
C     7.35000038  17.86000061  45.81999969
C     8.53999996  17.20000076  46.09000397
C    12.48999977  16.27000046  46.90999985
C    13.25000000  16.42000008  45.65000153
C    14.61999989  16.31999969  45.66999817
C     4.98000002  18.22000122  46.42000198
H     4.77947521  17.86192131  45.41021729
H     9.47000027  17.90999985  44.29999924
H    10.31999969  15.65000057  48.57999802
H     7.88000011  16.17000008  49.29999924
H     5.59000015  17.02999878  48.60000229
H     7.14999962  18.36000061  44.86999893
H    15.21000004  16.51000023  44.78000259
H     4.28000021  17.68000031  47.05999756
H     4.80999994  19.30999947  46.39999771
S    15.53999996  15.22999954  49.34000015
C    18.29000092  14.96999931  48.75000000
C    16.98999977  15.36000061  48.36999893
C    16.64999962  15.95999908  47.09999847
C    17.72999954  16.14999962  46.29000092
C    18.97999954  15.62999916  46.52999878
C    19.96999931  15.57999992  45.54000092
C    21.21999931  15.14000034  45.79000092
C    21.56999969  14.73000050  47.05999756
C    20.63999939  14.70000076  48.09000015
C    19.29999924  15.11000061  47.78999710
C    15.24000072  16.13999939  46.90000153
C    14.51000023  15.90000057  48.06999969
C    13.15999985  15.93999958  48.13000107
C    22.96999931  14.42999935  47.34000397
H    23.39554787  14.85554886  48.24880219
H    18.53999901  14.57999992  49.72999954
H    17.65999985  16.60000038  45.31000137
H    19.71999931  15.98999977  44.56999969
H    21.97000122  15.26000023  45.01999664
H    20.95999908  14.35999966  49.06000137
H    12.67000008  15.53999996  49.01000214
H    23.52999878  14.67000008  46.43000031
H    23.09000015  13.34000015  47.36999893
S    16.14999962  12.31999969  52.36999893
C    18.54999924  11.85999966  51.40999603
C    17.26000023  11.89000034  51.17000198
C    16.73999977  11.54000092  49.91000366
C    17.60000038  11.21000099  48.88000107
C    19.00000000  11.18000031  49.09000015
C    20.02000046  10.98999977  48.13000107
C    21.31000137  10.98999977  48.43000031
C    21.80999947  11.26000023  49.72999954
C    20.88000107  11.59999943  50.72999954
C    19.52999878  11.54000092  50.41999817
C    15.31000042  11.79999924  49.87999725
C    14.78999996  12.23000050  51.13999939
C    13.53000069  12.67000008  51.27999878
C    23.12999916  10.72999954  50.19000244
H    23.48811913  11.27434254  51.06381226
H    18.85000038  12.25000000  52.37999725
H    17.26000023  11.02000046  47.85999680
H    19.61000061  10.50000000  47.25000000
H    22.00000000  10.62000084  47.68000031
H    21.07999992  11.82999992  51.77000046
H    13.17999935  13.07000065  52.22999954
H    22.96999931   9.68999958  50.51000214
H    23.84000015  10.70000076  49.34999847
S    11.94000053  12.27000046  47.61000061
C     9.42000008  12.50000000  48.46000290
C    10.70000076  12.61000061  48.75999832
C    11.23000050  12.93000031  50.05000305
C    10.36000061  13.45000076  50.94999695
C     8.97999954  13.55000019  50.65000153
C     8.03999996  14.19999981  51.51000214
C     6.69000053  14.25000000  51.25999832
C     6.19999981  13.53999996  50.13999939
C     7.11000013  13.09000015  49.22000122
C     8.52000046  13.02000046  49.40000153
C    12.68000031  12.63000011  50.14999771
C    13.15999985  12.20999908  48.92000198
C    14.40000057  11.69000053  48.83999634
C     4.69000006  13.83999920  49.72999954
H     4.61170387  13.67628956  48.65521240
H     9.09000015  12.20000076  47.47000122
H    10.65999985  13.82999992  51.91999817
H     8.43999958  14.84000015  52.29000092
H     6.02999973  14.88000011  51.86000061
H     6.70000029  12.79999924  48.26000214
H    14.73999977  11.43000031  47.84000015
H     4.48999977  14.91000080  49.86000061
H     4.13000011  13.14000034  50.37000275
