96

S    11.92999935  17.25000000  44.33000183
C     9.32999992  17.69000053  45.12000275
C    10.53999996  17.25000000  45.48999786
C    10.88999939  16.79999924  46.77000046
C     9.77000046  16.69000053  47.70999908
C     8.47000027  17.00000000  47.28000259
C     7.37999964  16.81999969  48.13000107
C     6.14000034  17.31999969  47.80000305
C     5.97000027  17.90999985  46.52999878
C     6.94999981  17.90999985  45.54999924
C     8.26000023  17.52000046  45.97000122
C    12.32999992  16.61999893  46.88000107
C    13.03999996  16.77999878  45.61999893
C    14.40000057  16.68000031  45.47999954
C     4.57999992  18.39999962  46.06999969
H     4.16038942  17.84526062  45.23077774
H     9.09000015  18.02999878  44.12000275
H     9.94000053  16.27000046  48.69999695
H     7.64999962  16.46000099  49.12000275
H     5.35000038  17.25000000  48.54000092
H     6.76999998  18.35000038  44.58000183
H    14.85999966  16.87000084  44.52000046
H     3.79999995  18.25000000  46.83000183
H     4.67999983  19.48999977  45.94999695
S    15.51000023  15.84000015  49.03999710
C    18.12999916  15.27999973  48.36000061
C    16.90999985  15.77999973  48.06000137
C    16.55999947  16.10999870  46.69000244
C    17.52000046  16.21000099  45.75000000
C    18.81000137  15.80000019  45.98999786
C    19.93999863  15.88000107  45.04000092
C    21.21000099  15.47000027  45.38999939
C    21.42999840  15.00000000  46.72000122
C    20.42000008  14.80999947  47.56000137
C    19.12999916  15.21999931  47.23999786
C    15.13000011  16.29999924  46.59000015
C    14.45000076  16.13999939  47.84000015
C    13.10999966  16.29999924  48.02999878
C    22.90999985  14.68000031  47.08000183
H    23.24491692  15.25215054  47.94520569
H    18.45000076  14.92000008  49.33000183
H    17.27000046  16.69000053  44.80999756
H    19.85999870  16.17000008  44.00000000
H    21.93000031  15.29999924  44.59999847
H    20.73999786  14.42000008  48.52000427
H    12.56999969  15.97000027  48.90999603
H    23.55999947  14.93000031  46.23000336
H    23.05000114  13.60999966  47.23999786
S    16.28000069  13.50999928  52.19999695
C    18.86999893  12.96000004  51.37000275
C    17.53999901  12.89000034  51.16000366
C    16.97000122  12.28999996  49.97000122
C    17.85000038  11.69000053  49.05000305
C    19.29000092  11.89000034  49.18000031
C    20.27000046  11.39999962  48.23999786
C    21.56999969  11.28999901  48.59000397
C    22.04000092  11.82999992  49.86999893
C    21.19999886  12.39999962  50.68999863
C    19.79999924  12.46000099  50.43000031
C    15.52999973  12.48999977  49.85000229
C    15.06000042  13.23999977  50.97000122
C    13.73999977  13.57999992  51.06999969
C    23.47999954  11.51999950  50.31999969
H    23.72736931  11.95653343  51.28765106
H    19.20999908  12.97000027  52.41000366
H    17.40999985  11.21999931  48.16999817
H    19.93000031  10.80999947  47.38999939
H    22.22999954  10.77000046  47.90999985
H    21.45999908  12.67000008  51.70999908
H    13.25000000  14.04000092  51.91999817
H    23.51000023  10.44000053  50.45999908
H    24.18999863  11.79999924  49.52999878
S    12.09000015  12.64000034  47.62000275
C     9.51000023  13.01000023  48.39000320
C    10.77000046  13.02999973  48.70999908
C    11.31000042  13.35000038  50.02999878
C    10.39000034  13.78999901  50.96000290
C     9.06000042  13.86000061  50.59999847
C     8.13000011  14.29999924  51.55000305
C     6.76000023  14.30999947  51.17000198
C     6.28000021  13.78000069  49.95999908
C     7.22000027  13.31999969  49.08000183
C     8.60999966  13.32999992  49.38000107
C    12.77999973  13.31999969  50.05000305
C    13.30000019  12.72999954  48.86000061
C    14.68000031  12.25999928  48.72000122
C     4.85000038  13.97999954  49.54000092
H     4.55504179  13.64817238  48.54451752
H     9.09000015  12.69000053  47.43999863
H    10.77000046  13.99000072  51.97000122
H     8.47000027  14.63000107  52.52999878
H     6.01999998  14.81999969  51.77000046
H     6.76999998  13.12000084  48.11000061
H    15.07999992  11.82999992  47.81000137
H     4.59000015  15.03000069  49.71000290
H     4.30999994  13.45999908  50.34000015
