96

S    12.02999973  16.94000053  44.13000107
C     9.35999966  17.13000107  44.88999939
C    10.60999966  16.77000046  45.21999741
C    10.95000076  16.27000046  46.52000046
C     9.94999981  15.95999908  47.45999908
C     8.61999989  16.44000053  47.16999817
C     7.55000019  16.34000015  48.11999893
C     6.30000019  16.81999969  47.80000305
C     6.05000019  17.46999931  46.55000305
C     7.05999947  17.56999969  45.61000061
C     8.32999992  16.98999977  45.86999893
C    12.35999966  16.06999969  46.68000031
C    13.07000065  16.39000130  45.47000122
C    14.42999935  16.36000061  45.38999939
C     4.65999985  17.86000061  46.17000198
H     4.28987026  17.18828201  45.39546967
H     9.22999954  17.73999977  44.00000000
H    10.11000061  15.47999954  48.41999817
H     7.78999996  16.06999969  49.13999939
H     5.40000010  16.55999947  48.36000061
H     6.80000019  18.04000092  44.65999985
H    14.85999966  16.50000000  44.40000153
H     3.89999986  17.80999947  46.95999908
H     4.67000008  18.89000130  45.77000046
S    15.44999981  15.07999992  49.02000046
C    18.06999969  14.80000019  48.34999847
C    16.84999847  15.15999985  47.94000244
C    16.50000000  15.59000015  46.65999985
C    17.53999901  15.65000057  45.77000046
C    18.88000107  15.29000092  46.10000229
C    19.96999931  15.39999962  45.19000244
C    21.27000046  15.03000069  45.56000137
C    21.47999954  14.39000034  46.81999969
C    20.45000076  14.32000065  47.76000214
C    19.14999962  14.82999992  47.45999908
C    15.11999989  16.00000000  46.51000214
C    14.47000027  15.60999966  47.71999741
C    13.02999973  15.52999973  47.77999878
C    22.84000015  14.07999992  47.27000427
H    23.28849030  14.82981968  47.92171478
H    18.22000122  14.47000027  49.38000107
H    17.40999985  16.14999962  44.81999969
H    19.76000023  15.81999969  44.20999908
H    22.09000015  15.08999920  44.86000061
H    20.66999817  13.90999985  48.75000000
H    12.51000023  15.03000069  48.57999802
H    23.45000076  13.89999962  46.38000107
H    22.93999863  13.15999985  47.85999680
S    15.85999966  12.88000011  52.15999985
C    18.38999939  12.17000008  51.31999969
C    17.05999947  12.07999992  51.14999771
C    16.54000092  11.64000034  49.84000397
C    17.40999985  11.13999939  48.94000244
C    18.81999969  11.10000038  49.15000153
C    19.78000069  10.42000008  48.30999756
C    21.14000130  10.34999943  48.61000061
C    21.59000015  11.03000069  49.75999832
C    20.71000099  11.72000027  50.61999893
C    19.29999924  11.72999954  50.30000305
C    15.08999920  12.01000023  49.78000259
C    14.63000107  12.56000042  50.97000122
C    13.28999996  12.89000034  51.05999756
C    23.02999878  10.93999958  50.19000244
H    23.31720924  11.29183197  51.18087387
H    18.82999992  12.71000004  52.15000153
H    17.09000015  10.59999943  48.06000137
H    19.36000061   9.85000038  47.49000168
H    21.80999947   9.85999966  47.90999985
H    21.02999878  12.07999992  51.59999847
H    13.00000000  13.30000019  52.02000046
H    23.38999939   9.90999985  50.12000275
H    23.67000198  11.51000023  49.50000000
S    11.69999981  12.07999992  47.55000305
C     9.10000038  12.43999958  48.47000122
C    10.44999981  12.41000080  48.70999908
C    10.95000076  12.81000042  49.99000168
C    10.06999969  13.28999996  50.91999817
C     8.71000004  13.38999939  50.68999863
C     7.69999981  13.94999981  51.56999969
C     6.35999966  13.99000072  51.18000031
C     5.88999987  13.63999939  49.89999771
C     6.85999966  13.05999947  49.06000137
C     8.23000050  12.98999977  49.43000031
C    12.36999989  12.67000008  49.99000168
C    12.89999962  12.20000076  48.80000305
C    14.18000031  11.75000000  48.72000122
C     4.44999981  13.92000008  49.47999954
H     4.41217756  13.79140282  48.39827347
H     8.78000069  12.11999989  47.48000336
H    10.43000031  13.68999958  51.86000061
H     7.92000008  14.52000046  52.47000122
H     5.69000006  14.40000057  51.93000031
H     6.56000042  12.67000008  48.09000015
H    14.60999966  11.36999989  47.78999710
H     4.28000021  15.00000000  49.54999924
H     3.65000010  13.34000015  49.95999908
