96

S    12.34000015  17.00000000  44.05000305
C     9.68000031  17.28999901  44.77000427
C    10.98000050  16.98999977  45.14999771
C    11.38000011  16.59000015  46.45999908
C    10.39999962  16.54999924  47.43000031
C     9.06000042  16.81999969  47.15000153
C     8.01000023  16.79000092  48.06999969
C     6.70000029  17.11000061  47.81999969
C     6.38999987  17.38999939  46.45000076
C     7.32999992  17.51000023  45.47999954
C     8.71000004  17.17000008  45.77999878
C    12.76999950  16.38000107  46.60999680
C    13.48999977  16.46000099  45.40000153
C    14.82999992  16.39999962  45.34000015
C     4.92000008  17.75000000  46.00999832
H     4.53651667  17.14945030  45.18514633
H     9.35000038  17.85000038  43.89999771
H    10.57999992  16.03000069  48.36999893
H     8.26000023  16.57999992  49.09999847
H     5.89999962  17.14999962  48.55999756
H     7.13000011  17.75000000  44.43000031
H    15.36000061  16.61999893  44.41999817
H     4.30999994  17.53999901  46.90000153
H     4.74000025  18.81999969  45.86999893
S    15.80000019  15.57000065  49.06000137
C    18.40999985  15.14999962  48.34000015
C    17.19000053  15.47999954  47.97000122
C    16.87000084  15.84000015  46.65000153
C    17.93000031  16.06999969  45.76000214
C    19.26000023  15.71000004  46.09000397
C    20.31999969  15.67999935  45.17000198
C    21.54000092  15.19999981  45.54999924
C    21.75000000  14.73999977  46.88999939
C    20.72999954  14.78000069  47.81000137
C    19.48999977  15.21000004  47.41000366
C    15.48999977  16.07999992  46.44000244
C    14.78000069  16.03999901  47.68000031
C    13.45000076  16.05999947  47.74000168
C    23.13999939  14.40000057  47.31999969
H    23.48382187  15.08062935  48.09886551
H    18.53999901  14.56999969  49.25000000
H    17.76000023  16.38000107  44.72000122
H    20.13999939  16.09000015  44.18000031
H    22.39000130  15.21000004  44.86999893
H    20.93000031  14.47999954  48.83999634
H    12.96000004  15.77999973  48.67000198
H    23.80000114  14.47999954  46.45000076
H    23.31000137  13.40000057  47.75000000
S    16.26000023  12.94000053  51.86999893
C    18.86000061  12.18000031  51.16000366
C    17.52000046  12.25000000  50.81999969
C    17.02000046  11.89000034  49.54000092
C    17.94000053  11.56999969  48.56999969
C    19.30999947  11.40999985  48.90999603
C    20.32999992  10.90999985  47.97000122
C    21.63999939  10.77999973  48.43000031
C    22.03000069  11.10999966  49.75999832
C    21.09000015  11.59999943  50.66999817
C    19.77000046  11.67000008  50.27000046
C    15.62000084  12.13000107  49.45000076
C    15.07999992  12.76000023  50.63999939
C    13.73000050  13.07999992  50.76000214
C    23.50000000  11.21000099  50.20000076
H    23.64615059  11.26567554  51.27872086
H    19.17000008  12.69000053  52.06999969
H    17.54999924  11.47999954  47.55000305
H    20.03000069  10.47999954  47.02000046
H    22.39999962  10.55999947  47.69000244
H    21.34000015  12.00000000  51.65000153
H    13.48999977  13.38999939  51.77000046
H    24.03000069  10.39000034  49.68999863
H    23.92000008  12.13999939  49.77000427
S    12.30999947  12.23000050  47.06999969
C     9.67000008  13.03999996  47.77999878
C    10.98999977  12.84000015  48.11999893
C    11.43000031  13.25000000  49.43999863
C    10.55999947  13.73999977  50.34999847
C     9.19000053  13.78999901  50.05000305
C     8.23000050  14.22000027  51.04999924
C     6.90000010  14.42999935  50.76000214
C     6.38000011  13.92000008  49.52000046
C     7.26999998  13.55999947  48.53000259
C     8.76000023  13.43999958  48.76999664
C    12.82999992  12.90999985  49.65999985
C    13.38999939  12.32999992  48.48999786
C    14.78999996  11.98999977  48.34000015
C     4.94999981  14.15999985  49.08000183
H     4.65263414  13.92790890  48.05735397
H     9.39000034  12.81000042  46.76000214
H    10.84000015  14.09000015  51.33999634
H     8.59000015  14.52000046  52.04000092
H     6.19000006  14.75000000  51.52000046
H     6.98999977  13.45999908  47.48000336
H    15.08999920  11.56999969  47.38999939
H     4.72000027  15.21000004  49.29000092
H     4.32000017  13.53000069  49.72000122
