96

S    12.34000015  17.26000023  44.22999954
C     9.68999958  17.60000038  44.75999832
C    10.85000038  17.07999992  45.12000275
C    11.05999947  16.47999954  46.42000198
C    10.00000000  16.38000107  47.30999756
C     8.71999931  16.77999878  46.84999847
C     7.59000015  16.63999939  47.72999573
C     6.38999987  17.31999969  47.49000168
C     6.26999950  17.92000008  46.22000122
C     7.31999969  17.97000122  45.27999878
C     8.59000015  17.46000099  45.59000015
C    12.51000023  16.36000061  46.70000076
C    13.27999973  16.80999947  45.61999893
C    14.63999939  16.95000076  45.68999863
C     4.90000010  18.38000107  45.75000000
H     4.50939178  17.82198906  44.89903259
H     9.63999939  18.15999985  43.82999802
H    10.06999969  15.84000015  48.25000000
H     7.76999998  16.07999992  48.63999939
H     5.61999989  17.34000015  48.25000000
H     7.09999990  18.44000053  44.33000183
H    15.19000053  17.38000107  44.86000061
H     4.15000010  18.35000038  46.56000137
H     5.03000021  19.43000031  45.47999954
S    15.67000008  15.46000004  49.22000122
C    18.31999969  15.34000015  48.67000198
C    17.05999947  15.75000000  48.27999878
C    16.75000000  16.27000046  46.97999954
C    17.75000000  16.31000137  46.02000427
C    19.04000092  15.90000057  46.32999802
C    20.06000137  15.76000023  45.33000183
C    21.31000137  15.36999893  45.61999893
C    21.57999992  14.98000050  46.97999954
C    20.53999901  14.85999966  47.93000031
C    19.31999969  15.43000031  47.67000198
C    15.34999943  16.44000053  46.81999969
C    14.57999992  15.90000057  47.84999847
C    13.17999935  15.85000038  47.81999969
C    22.95000076  14.59000015  47.37999725
H    23.28212357  15.18782330  48.22876358
H    18.55999947  14.91000080  49.64000320
H    17.45000076  16.46999931  44.99000168
H    19.92000008  16.11999893  44.31999969
H    22.09000015  15.52000046  44.88999939
H    20.59000015  14.28999996  48.86000061
H    12.64000034  15.52999973  48.70999908
H    23.61000061  14.65999985  46.51000214
H    22.88000107  13.53000069  47.65999603
S    11.71000004  17.13999939  50.77999878
C     9.01000023  17.54999924  51.44000244
C    10.27999973  17.15999985  51.84999847
C    10.59000015  16.75000000  53.22000122
C     9.59000015  16.64999962  54.15999985
C     8.28999996  17.13000107  53.75000000
C     7.13999987  16.98999977  54.54000092
C     5.86000013  17.31999969  54.20000076
C     5.69000006  18.09999847  53.02999878
C     6.74000025  18.20999908  52.16999817
C     8.02999973  17.61000061  52.41000366
C    12.02000046  16.63999939  53.36000061
C    12.69999981  16.86000061  52.18000031
C    14.14999962  16.84000015  52.15000153
C     4.28000021  18.52000046  52.57999802
H     3.98335171  18.06796455  51.63355255
H     8.76999950  18.05999947  50.51000214
H     9.70000076  16.29999924  55.19000244
H     7.31999969  16.29999924  55.35999680
H     4.96000004  17.04000092  54.72999954
H     6.58999968  18.63999939  51.18999863
H    14.63000107  17.19000053  51.24000168
H     3.58999991  18.42000008  53.43000031
H     4.28999996  19.59000015  52.35000229
S    15.21000004  16.03999901  55.87999725
C    17.86000061  15.34999943  55.01999664
C    16.62999916  15.98999977  54.77000427
C    16.31000137  16.50000000  53.52000427
C    17.32999992  16.44000053  52.51999664
C    18.60000038  15.88999939  52.80000305
C    19.65999985  15.98000050  51.86000061
C    20.82999992  15.38000011  52.11000061
C    21.15999985  14.85999966  53.34000015
C    20.20999908  14.78999996  54.34999847
C    18.89000130  15.27999973  54.06999969
C    14.86999989  16.62999916  53.30999756
C    14.15999985  16.35000038  54.47999954
C    12.75000000  16.31999969  54.52999878
C    22.57999802  14.52000046  53.77999878
H    22.88949585  15.12389565  54.63300705
H    17.89999962  14.85999966  55.98999786
H    17.05999947  16.90000153  51.58000183
H    19.40000153  16.53000069  50.96000290
H    21.63000107  15.52000046  51.38999939
H    20.46999931  14.52000046  55.38000107
H    12.20999908  15.98000050  55.40999985
H    23.25000000  14.77000046  52.94000244
H    22.65000153  13.45000076  53.97999573
