96

S    12.30999947  17.19000053  44.43000031
C     9.67000008  17.35999870  45.08999634
C    10.90999985  17.02999878  45.44000244
C    11.25000000  16.73999977  46.81000137
C    10.24000072  16.69999886  47.76000214
C     8.89999962  17.06999969  47.39999771
C     7.85000038  17.27000046  48.36000061
C     6.61000013  17.70000076  48.02999878
C     6.37000036  18.00000000  46.63999939
C     7.34000015  17.92000008  45.63999939
C     8.64000034  17.38999939  46.04999924
C    12.68000031  16.50000000  46.90000153
C    13.38000107  16.63999939  45.65000153
C    14.77000046  16.50000000  45.50000000
C     4.96000004  18.43000031  46.27999878
H     4.62937164  17.99155807  45.33842850
H     9.48000050  17.84000015  44.13999939
H    10.57999992  16.39000130  48.74000168
H     8.14000034  17.06999969  49.38999939
H     5.93999958  17.97999954  48.83999634
H     7.23999977  18.20999908  44.59000015
H    15.31999969  16.46000099  44.55999756
H     4.26999998  18.23999977  47.11000061
H     5.09999990  19.51000023  46.23000336
S    15.85999966  16.05999947  49.34999847
C    18.53000069  15.52999973  48.55999756
C    17.25000000  15.85999966  48.23999786
C    16.88999939  16.06999969  46.88999939
C    17.85000038  16.13999939  45.91999817
C    19.19999886  15.82999992  46.20999908
C    20.29999924  16.01000023  45.26000214
C    21.52000046  15.57999992  45.61999893
C    21.77000046  15.10000038  46.93000031
C    20.82999992  15.08999920  47.88000107
C    19.52000046  15.44999981  47.54000092
C    15.47000027  16.32999992  46.69000244
C    14.73999977  16.20000076  47.97999954
C    13.31999969  16.26000023  48.06000137
C    23.12999916  14.55000019  47.25000000
H    23.43758965  15.11510849  48.12985229
H    18.85000038  15.22999954  49.54999924
H    17.65999985  16.29999924  44.86000061
H    20.06999969  16.39999962  44.27000046
H    22.32000160  15.44999981  44.88999939
H    21.01000023  14.65000057  48.86000061
H    12.81999969  15.95000076  48.96999741
H    23.77000046  14.72000027  46.37000275
H    23.12999916  13.47000027  47.41000366
S    11.97999954  17.39999962  50.86000061
C     9.32999992  17.88999939  51.65999985
C    10.53999996  17.31999969  51.95999908
C    10.88999939  17.09000015  53.34000015
C     9.90999985  17.17000008  54.29000092
C     8.64999962  17.63000107  53.95000076
C     7.63000011  17.45000076  54.86000061
C     6.32000017  17.79999924  54.55999756
C     5.97000027  18.37000084  53.26000214
C     7.02000046  18.48999977  52.36999893
C     8.34000015  18.04999924  52.63000107
C    12.35000038  16.87999916  53.47000122
C    13.04999924  17.09000015  52.27000427
C    14.42999935  17.15999985  52.28000259
C     4.55000019  18.77000046  52.90000153
H     4.22921753  18.25237274  51.99597549
H     9.21000004  18.30999947  50.66999817
H    10.14999962  16.79999924  55.28999710
H     7.94000053  17.18000031  55.86000061
H     5.51999998  17.70000076  55.28999710
H     6.81999969  18.93000031  51.39999771
H    14.98999977  17.34000015  51.36000061
H     3.86999989  18.50000000  53.72000122
H     4.59000015  19.86999893  52.84000015
S    15.46000004  16.10999870  56.10000229
C    18.09000015  15.70000076  55.30000305
C    16.80999947  16.18000031  55.04000092
C    16.53000069  16.70999908  53.70999908
C    17.54999924  16.87000084  52.77000046
C    18.86000061  16.36999893  53.04000092
C    19.95000076  16.43000031  52.12999725
C    21.22999954  16.10999870  52.45999908
C    21.50000000  15.52999973  53.67000198
C    20.53999901  15.40999985  54.56999969
C    19.18000031  15.80999947  54.33000183
C    15.14000034  16.86000061  53.48999786
C    14.42000008  16.57999992  54.75000000
C    13.02999973  16.63999939  54.66999817
C    22.89999962  15.19000053  54.02999878
H    23.15974998  15.63227749  54.99177933
H    18.27999878  15.26000023  56.26999664
H    17.31999969  17.09000015  51.72999954
H    19.71999931  16.94000053  51.19999695
H    22.00000000  16.34000015  51.72999954
H    20.85000038  15.22999954  55.59999847
H    12.38000011  16.40999985  55.50000000
H    23.68000031  15.34999943  53.27999878
H    22.93999863  14.09999943  54.19000244
