96

S    12.31999969  16.77000046  44.41999817
C     9.70000076  17.12000084  45.00000000
C    10.90999985  16.65999985  45.45999908
C    11.21999931  16.14999962  46.72999954
C    10.19000053  16.09000015  47.67000198
C     8.89000034  16.57999992  47.28000259
C     7.86000013  16.65999985  48.22999954
C     6.58999968  17.11000061  47.90999985
C     6.28000021  17.64999962  46.62000275
C     7.42999983  17.80999947  45.76000214
C     8.67000008  17.18000031  45.98999786
C    12.63000011  16.13999939  46.95000076
C    13.38999939  16.54999924  45.75000000
C    14.75999928  16.52000046  45.61000061
C     4.96000004  18.18000031  46.25999832
H     4.59486866  17.58576775  45.42234421
H     9.73999977  17.43999863  43.95999908
H    10.34000015  15.90000057  48.73000336
H     8.06999969  16.31999969  49.23999786
H     5.75000000  17.05999947  48.61000061
H     7.51999950  18.50000000  44.93000031
H    15.15999985  16.79000092  44.64000320
H     4.32000017  18.22999954  47.15000153
H     5.13000011  19.23999977  46.04999924
S    15.76000023  15.39999962  49.27999878
C    18.46999931  15.19999981  48.80000305
C    17.20999908  15.44000053  48.29000092
C    16.88999939  15.80000019  46.91999817
C    17.90999985  15.82999992  46.00000000
C    19.22999954  15.54999924  46.40999603
C    20.28000069  15.51000023  45.51000214
C    21.57999992  15.21999931  45.89000320
C    21.84000015  14.96999931  47.21000290
C    20.81999969  14.96999931  48.18999863
C    19.51000023  15.32999992  47.81000137
C    15.46000004  16.03999901  46.72999954
C    14.75000000  15.77000046  47.91999817
C    13.35999966  15.75000000  48.04000092
C    23.19000053  14.55999947  47.43999863
H    23.60963631  14.97252369  48.35750961
H    18.63000107  14.84000015  49.80999756
H    17.61000061  16.03000069  44.97000122
H    20.02000046  15.86999989  44.52000046
H    22.30999947  15.11999989  45.08999634
H    21.05999947  14.70000076  49.20999908
H    12.82999992  15.22999954  48.82999802
H    23.69999886  14.81999969  46.51000214
H    23.26999855  13.45999908  47.48000336
S    16.06999969  12.97999954  52.44999695
C    18.67000008  12.17000008  51.56000137
C    17.32999992  12.23999977  51.35000229
C    16.81999969  11.75000000  50.14999771
C    17.60000038  11.28000069  49.15000153
C    18.95000076  11.18999958  49.34999847
C    19.81999969  10.75000000  48.37999725
C    21.19999886  10.55999947  48.61000061
C    21.75000000  10.88999939  49.89999771
C    20.92000008  11.44000053  50.86999893
C    19.50000000  11.56000042  50.63999939
C    15.40999985  12.05000019  50.08999634
C    14.89999962  12.75000000  51.14999771
C    13.61999989  13.31999969  51.10000229
C    23.26999855  10.77000046  50.04000092
H    23.55629730  11.17500687  51.01062012
H    19.14999962  12.53000069  52.47000122
H    17.19000053  11.25000000  48.13999939
H    19.38999939  10.32999992  47.47000122
H    21.84999847  10.21000004  47.81000137
H    21.28999901  11.82000065  51.81999969
H    13.30000019  13.96999931  51.91999817
H    23.46999931   9.71000004  49.84000397
H    23.78999901  11.36000061  49.27999878
S    12.13999939  11.97999954  47.64999771
C     9.52000046  12.65999985  48.40000153
C    10.86999989  12.64999962  48.73000336
C    11.33999920  13.07999992  49.99000168
C    10.50000000  13.57999992  50.93000031
C     9.11999989  13.75000000  50.52000046
C     8.17000008  14.40000057  51.38000107
C     6.80000019  14.40999985  51.16000366
C     6.25000000  13.82999992  50.00000000
C     7.16000032  13.23999977  49.09000015
C     8.59000015  13.17999935  49.29999924
C    12.76000023  13.01000023  50.08999634
C    13.31999969  12.38000011  48.94000244
C    14.63999939  11.97000027  48.93000031
C     4.80999994  14.01999950  49.56999969
H     4.65328455  13.82766724  48.50860977
H     9.04999924  12.18999958  47.54000092
H    10.78999996  14.06999969  51.86000061
H     8.57999992  14.92000008  52.22999954
H     6.09000015  14.93999958  51.77999878
H     6.76000023  13.10999966  48.09000015
H    15.10000038  11.61000061  48.01000214
H     4.55000019  15.05000019  49.86999893
H     4.13999987  13.38000107  50.14999771
