96

S    11.68000031  16.77999878  44.22999954
C     9.11000061  17.11000061  44.93999863
C    10.31000042  16.79999924  45.31999969
C    10.67999935  16.52000046  46.69000244
C     9.67000008  16.39000130  47.62000275
C     8.36999989  16.75000000  47.25000000
C     7.23999977  16.69999886  48.11000061
C     6.00000000  17.14999962  47.77999878
C     5.78999996  17.53000069  46.43000031
C     6.77999973  17.56000137  45.52999878
C     8.10999966  17.20000076  45.90999985
C    12.10000038  16.27000046  46.79000092
C    12.76000023  16.45000076  45.54999924
C    14.18000031  16.26000023  45.41999817
C     4.38000011  17.87999916  46.02000427
H     4.01673126  17.31330109  45.16268921
H     8.78999996  17.30999947  43.92000198
H     9.89000034  16.05999947  48.62999725
H     7.36999989  16.25000000  49.09000015
H     5.19000006  17.20999908  48.50000000
H     6.52999973  17.85000038  44.51000214
H    14.57999992  16.25000000  44.40999985
H     3.73000002  17.54999924  46.83000183
H     4.21999979  18.94000053  45.81999969
S    15.34999943  15.44000053  49.20999908
C    17.93000031  15.03000069  48.43999863
C    16.70999908  15.36999893  48.06000137
C    16.35000038  15.62999916  46.65000153
C    17.38000107  15.80999947  45.76000214
C    18.64999962  15.52000046  46.18999863
C    19.75000000  15.70000076  45.28999710
C    21.00000000  15.26000023  45.76000214
C    21.28000069  14.68999958  47.02000046
C    20.25000000  14.72000027  47.94000244
C    18.97999954  15.10000038  47.50999832
C    14.86999989  15.86999989  46.59000015
C    14.21000004  15.88000107  47.87000275
C    12.81000042  16.07999992  47.93000031
C    22.65000153  14.25000000  47.35000229
H    22.99900246  14.76623344  48.24431992
H    18.05999947  14.61999989  49.43999863
H    17.14999962  16.20000076  44.77000427
H    19.55000114  16.18000031  44.34000015
H    21.77000046  15.29999924  45.00000000
H    20.43000031  14.32000065  48.94000244
H    12.28999996  16.14999962  48.88000107
H    23.19999886  14.47000027  46.43000031
H    22.73999977  13.17000008  47.54000092
S    15.98999977  13.07000065  52.25000000
C    18.63000107  12.48000050  51.38000107
C    17.26000023  12.46999931  51.11999893
C    16.79000092  11.98999977  49.86999893
C    17.61999893  11.50000000  48.88999939
C    19.04000092  11.47999954  49.18000031
C    20.03000069  10.95999908  48.31999969
C    21.31000137  10.77999973  48.72000122
C    21.91999817  11.31999969  49.88999939
C    20.95999908  11.78999996  50.75000000
C    19.55999947  11.92000008  50.45999908
C    15.38000011  12.18999958  49.81999969
C    14.73999977  12.72999954  50.96000290
C    13.35999966  13.09000015  51.03000259
C    23.36999893  11.06999969  50.21999741
H    23.65158844  11.43101311  51.20917511
H    18.97999954  12.92000008  52.30999756
H    17.13999939  11.18000031  47.97000122
H    19.65999985  10.32999992  47.50999832
H    21.91999817  10.21999931  48.02000046
H    21.31000137  12.06999969  51.73999786
H    12.90999985  13.36999989  51.97999954
H    23.57999992  10.00000000  50.12000275
H    24.02000046  11.54999924  49.47999954
S    12.07999992  12.25000000  47.42000198
C     9.30999947  12.84000015  48.09999847
C    10.67000008  12.71000004  48.46000290
C    11.21000099  13.14000034  49.73999786
C    10.29999924  13.63000011  50.66999817
C     8.89000034  13.66000080  50.38000107
C     8.01999950  14.09999943  51.38000107
C     6.69000053  14.28999996  51.17000198
C     6.11999989  13.93000031  49.91000366
C     6.94999981  13.40000057  48.94000244
C     8.34000015  13.30999947  49.03999710
C    12.61999989  12.89999962  49.86000061
C    13.27999973  12.42000008  48.72000122
C    14.60999966  12.05000019  48.69999695
C     4.67000008  14.07999992  49.72999954
H     4.42265368  13.69524002  48.74061584
H     8.89999962  12.48999977  47.15000153
H    10.53999996  14.04000092  51.63999939
H     8.36999989  14.37999916  52.36999893
H     6.05999994  14.85000038  51.84999847
H     6.61000013  13.04999924  47.97000122
H    14.98999977  11.68000031  47.75000000
H     4.53999996  15.17000008  49.71000290
H     4.11000013  13.68000031  50.58000183
