96

S    11.80999947  16.87999916  44.31000137
C     9.17000008  17.43999863  45.14999771
C    10.42000008  16.92000008  45.47000122
C    10.75000000  16.31000137  46.75000000
C     9.77999973  16.22999954  47.70000076
C     8.45000076  16.76000023  47.37999725
C     7.42000008  16.72999954  48.29000092
C     6.15999985  17.22999954  48.02000046
C     5.84000015  17.73999977  46.70999908
C     6.89000034  17.88999939  45.80999756
C     8.18000031  17.35000038  46.11999893
C    12.20000076  16.10000038  46.84999847
C    12.81000042  16.29999924  45.58000183
C    14.21000004  16.10999870  45.45000076
C     4.44000006  18.17000008  46.19999695
H     4.07586432  17.64878464  45.31464767
H     8.90999985  17.94999886  44.22999954
H     9.94000053  15.90000057  48.73000336
H     7.59999990  16.17000008  49.20999908
H     5.38999987  17.18000031  48.77999878
H     6.70000029  18.17000008  44.77000427
H    14.65000057  16.21000099  44.47000122
H     3.74000025  17.93000031  47.01000214
H     4.35999966  19.25000000  46.04999924
S    15.36000061  15.27999973  49.20999908
C    17.98999977  14.86999989  48.50999832
C    16.76000023  15.21999931  48.13000107
C    16.42000008  15.55999947  46.79999924
C    17.45000076  15.60999966  45.86000061
C    18.75000000  15.34000015  46.23000336
C    19.85000038  15.31999969  45.34000015
C    21.07000160  14.73999977  45.59000015
C    21.28000069  14.40999985  46.93999863
C    20.27000046  14.45000076  47.88999939
C    19.03000069  14.96999931  47.56999969
C    14.98000050  15.88000107  46.63000107
C    14.32000065  15.67999935  47.85999680
C    12.94000053  15.81999969  48.00000000
C    22.67999840  13.89999962  47.39999771
H    23.05674553  14.47236347  48.24767685
H    18.12999916  14.52999973  49.54000092
H    17.32999992  15.78999996  44.79000092
H    19.69000053  15.86999989  44.41999817
H    21.78999901  14.70000076  44.79000092
H    20.46999931  14.09000015  48.89999771
H    12.43000031  15.84000015  48.95000076
H    23.40999985  13.94999981  46.58000183
H    22.55000114  12.84000015  47.61000061
S    15.82999992  12.72999954  52.35000229
C    18.45000076  12.41000080  51.59999847
C    17.13000107  12.39999962  51.18999863
C    16.65999985  11.98999977  49.89999771
C    17.63000107  11.59000015  49.05000305
C    18.94000053  11.39999962  49.36000061
C    19.88000107  10.80999947  48.47000122
C    21.18000031  10.80999947  48.83999634
C    21.61000061  11.14999962  50.13999939
C    20.78000069  11.75000000  51.06999969
C    19.37000084  11.84000015  50.68999863
C    15.19999981  12.00000000  49.79000092
C    14.63999939  12.48999977  50.97999954
C    13.34000015  12.88000011  50.97999954
C    23.02999878  10.76000023  50.56000137
H    23.22652245  10.98563766  51.60812759
H    18.68000031  12.64999962  52.63000107
H    17.31999969  11.11999989  48.11999893
H    19.63999939  10.52999973  47.44999695
H    21.90000153  10.43000031  48.11000061
H    21.12999916  12.09000015  52.04999924
H    12.81999969  13.21000004  51.88000107
H    23.18000031   9.70000076  50.31999969
H    23.71999931  11.13999939  49.79000092
S    11.85999966  11.77999973  47.43999863
C     9.35999966  12.69000053  47.95999908
C    10.69000053  12.63000011  48.37999725
C    11.18000031  13.12000084  49.59000015
C    10.22999954  13.59000015  50.54999924
C     8.86999989  13.45000076  50.31999969
C     7.90999985  13.81999969  51.30000305
C     6.57000017  14.01999950  50.98999786
C     6.15999985  13.81000042  49.65999985
C     7.03000021  13.26000023  48.68000031
C     8.45000076  13.15000057  48.95000076
C    12.56000042  12.81999969  49.78000259
C    13.07000065  12.11999989  48.68999863
C    14.37999916  11.69999981  48.74000168
C     4.76999998  14.26000023  49.13999939
H     4.57432508  14.01359463  48.09640121
H     8.85000038  12.27000046  47.09999847
H    10.53999996  13.75000000  51.58000183
H     8.18000031  14.09999943  52.31999969
H     5.88999987  14.32000065  51.77999878
H     6.63000011  12.97000027  47.70999908
H    14.89999962  11.25000000  47.88999939
H     4.69999981  15.32999992  49.34000015
H     4.00000000  13.76999950  49.75000000
