96

S    12.32999992  16.95000076  44.16999817
C     9.71000004  17.15999985  44.95999908
C    10.93000031  16.84999847  45.27000046
C    11.38000011  16.61999893  46.65000153
C    10.34000015  16.54000092  47.55000305
C     8.97999954  16.86000061  47.28000259
C     7.97999954  16.84999847  48.30999756
C     6.67999983  17.13000107  47.94000244
C     6.38999987  17.59000015  46.62000275
C     7.40000010  17.72999954  45.68999863
C     8.71999931  17.20999908  45.94999695
C    12.77999973  16.55999947  46.79999924
C    13.43000031  16.77000046  45.56000137
C    14.81999969  16.62999916  45.40000153
C     4.96000004  18.00000000  46.31000137
H     4.61930895  17.47533417  45.41738892
H     9.55000019  17.64000130  44.00000000
H    10.57000065  16.21999931  48.55999756
H     8.21000004  16.53000069  49.31999969
H     5.80999947  17.13000107  48.59000397
H     7.21000004  18.02000046  44.65999985
H    15.36000061  16.61999893  44.45999908
H     4.38000011  17.67000008  47.18000031
H     4.92999983  19.10000038  46.31000137
S    16.00000000  15.90000057  49.13999939
C    18.60000038  15.29999924  48.46000290
C    17.38999939  15.75000000  48.11000061
C    16.98999977  16.11999893  46.77000046
C    18.00000000  16.14999962  45.81999969
C    19.29000092  15.70000076  46.17000198
C    20.27000046  15.52000046  45.13999939
C    21.59000015  15.31999969  45.52000046
C    21.96000099  14.93999958  46.84999847
C    20.97999954  14.78999996  47.81000137
C    19.64999962  15.26000023  47.50999832
C    15.57000065  16.39000130  46.58000183
C    14.91000080  16.21999931  47.81999969
C    13.55999947  16.25000000  47.95999908
C    23.39999962  14.63000107  47.19999695
H    23.72095490  15.00930977  48.17015839
H    18.89000130  15.06999969  49.47999954
H    17.71000099  16.36000061  44.79999924
H    20.00000000  15.70000076  44.09999847
H    22.34999847  15.39000034  44.75000000
H    21.25999832  14.47999954  48.81000137
H    13.02999973  16.18000031  48.90999603
H    24.04999924  15.10000038  46.45999908
H    23.50000000  13.53000069  47.18999863
S    16.23999977  13.30999947  52.22999954
C    18.81999969  12.79999924  51.52999878
C    17.52000046  12.79000092  51.24000168
C    17.07999992  12.38000011  49.92000198
C    17.93000031  11.87000084  48.96999741
C    19.29999924  11.82000065  49.27000046
C    20.28000069  11.28000069  48.40000153
C    21.63000107  11.28000069  48.81000137
C    22.06999969  11.87999916  50.00000000
C    21.09000015  12.34000015  50.90000153
C    19.77000046  12.36999989  50.56999969
C    15.67000008  12.63000011  49.69999695
C    15.11999989  13.25000000  50.87999725
C    13.75000000  13.60000038  50.94999695
C    23.52000046  11.72999954  50.41999817
H    23.89648056  12.18461895  51.33634186
H    19.20999908  13.26000023  52.43000031
H    17.53999901  11.26999950  48.15000153
H    19.97999954  10.85000038  47.43999863
H    22.22999954  10.64000034  48.16999817
H    21.28999901  12.76999950  51.88000107
H    13.30999947  14.13000011  51.79000092
H    23.77000046  10.65999985  50.45000076
H    24.10000038  12.15000057  49.59000015
S    12.28000069  12.57999992  47.36000061
C     9.70000076  13.01000023  48.15000153
C    11.00000000  13.17000008  48.39000320
C    11.52999973  13.68999958  49.61000061
C    10.59000015  14.01000023  50.56000137
C     9.13000011  13.89999962  50.28999710
C     8.19000053  14.22999954  51.30000305
C     6.81999969  14.28999996  51.04999924
C     6.32999992  13.81999969  49.75999832
C     7.22000027  13.31999969  48.77999878
C     8.65999985  13.32999992  49.10999680
C    12.96000004  13.40999985  49.80999756
C    13.50999928  12.76999950  48.67000198
C    14.85999966  12.34000015  48.59000397
C     4.84000015  14.07999992  49.36999893
H     4.60278988  13.67746162  48.38521576
H     9.34000015  12.81000042  47.15000153
H    10.90000057  14.14000034  51.59000015
H     8.60000038  14.75000000  52.15000153
H     6.15999985  14.72000027  51.79999924
H     6.84999990  13.15999985  47.77999878
H    15.26999950  11.80999947  47.74000168
H     4.75000000  15.17000008  49.33000183
H     4.26000023  13.66000080  50.20999908
