96

S    12.01000023  16.81999969  44.34999847
C     9.36999989  17.31999969  45.00000000
C    10.59000015  16.77000046  45.34999847
C    10.86999989  16.10999870  46.65000153
C     9.78999996  16.02000046  47.56999969
C     8.64999962  16.69000053  47.31999969
C     7.53999996  16.57999992  48.20000076
C     6.43000031  17.29999924  47.95000076
C     6.21000004  18.01000023  46.77999878
C     7.26999998  18.17000008  45.90000153
C     8.40999985  17.39999962  46.04999924
C    12.32999992  15.90999985  46.81999969
C    13.02000046  16.29999924  45.66999817
C    14.42999935  16.44000053  45.61999893
C     4.81999969  18.42000008  46.45000076
H     4.49003172  17.73073196  45.67274094
H     9.26000023  17.92000008  44.09000015
H     9.89999962  15.57999992  48.55999756
H     7.60999966  15.95000076  49.08000183
H     5.55000019  17.14999962  48.56999969
H     7.13000011  18.71000099  44.97000122
H    14.91000080  16.65999985  44.65999985
H     4.21000004  18.37000084  47.35000229
H     4.94000006  19.45000076  46.06999969
S    15.50000000  15.01000023  49.22999954
C    18.22999954  14.96000099  48.47999954
C    16.95000076  15.36000061  48.23999786
C    16.55999947  15.88000107  46.93000031
C    17.53999901  16.15999985  46.02000427
C    18.86000061  15.67999935  46.22000122
C    19.92000008  15.86999989  45.37000275
C    21.25999832  15.44999981  45.65999985
C    21.55999947  14.78000069  46.88000107
C    20.55000114  14.59000015  47.76000214
C    19.22000122  15.07999992  47.52999878
C    15.11999989  16.00000000  46.77000046
C    14.40999985  15.64000034  47.94000244
C    13.07000065  15.57999992  48.00000000
C    23.01000214  14.37999916  47.35000229
H    23.43387413  14.94979668  48.17690277
H    18.46999931  14.30999947  49.31999969
H    17.36999893  16.61000061  45.05000305
H    19.78999901  16.43000031  44.45000076
H    22.01999855  15.57999992  44.89999771
H    20.65000153  14.04999924  48.68999863
H    12.58999920  15.36999893  48.95000076
H    23.68999863  14.25000000  46.50000000
H    22.82999992  13.38999939  47.77999878
S    11.68000031  17.01000023  50.79000092
C     8.97000027  17.61000061  51.52999878
C    10.27999973  17.19000053  51.86000061
C    10.59000015  16.90000153  53.27000046
C     9.57999992  16.77999878  54.22999954
C     8.28999996  17.13999939  53.87000275
C     7.27999973  17.18000031  54.81999969
C     5.97000027  17.45000076  54.43000031
C     5.65000010  17.94000053  53.16999817
C     6.67000008  17.98999977  52.23999786
C     7.96000004  17.57999992  52.57999802
C    11.94000053  16.64999962  53.43999863
C    12.72999954  16.75000000  52.25999832
C    14.11999893  16.60000038  52.30999756
C     4.15000010  18.20999908  52.95999908
H     3.90967965  17.65160751  52.05526352
H     8.69000053  18.06999969  50.59000015
H     9.85000038  16.50000000  55.24000168
H     7.55000019  16.93000031  55.84000015
H     5.25000000  17.20999908  55.20999908
H     6.44999981  18.12000084  51.18000031
H    14.80999947  16.67000008  51.47999573
H     3.55999994  17.87999916  53.82999802
H     3.93000007  19.27000046  52.80000305
S    15.01999950  15.59000015  56.00000000
C    17.80999947  15.44999981  55.33000183
C    16.52000046  15.75000000  55.02999878
C    16.20000076  16.13000107  53.69999695
C    17.20000076  16.10000038  52.72999573
C    18.53000069  15.73999977  53.04999924
C    19.59000015  15.70000076  52.09999847
C    20.86000061  15.27999973  52.43999863
C    21.14999962  14.93000031  53.75999832
C    20.12000084  14.88000011  54.72000122
C    18.86999893  15.40999985  54.40000153
C    14.78000069  16.45000076  53.52000427
C    13.97999954  16.14999962  54.61000061
C    12.57999992  16.23999977  54.59999847
C    22.57999802  14.53999996  54.09000015
H    22.92789650  15.06184483  54.98148346
H    18.06999969  15.11000061  56.32999802
H    17.02999878  16.26000023  51.66999817
H    19.47999954  16.21000099  51.13999939
H    21.68999863  15.22999954  51.75000000
H    20.20999908  14.56999969  55.76000214
H    11.92999935  15.98000050  55.43000031
H    23.28000069  14.65999985  53.25000000
H    22.60000038  13.45999908  54.27000046
