96

S    11.94000053  17.67000008  44.19000244
C     9.19999981  17.93000031  44.86000061
C    10.47999954  17.46000099  45.14999771
C    10.81999969  16.87999916  46.40999603
C     9.81000042  16.56999969  47.28000259
C     8.48999977  16.98999977  46.97999954
C     7.51999950  16.73999977  47.94000244
C     6.21000004  17.25000000  47.78999710
C     5.88999987  17.87999916  46.51000214
C     6.84000015  18.17000008  45.58000183
C     8.17000008  17.65999985  45.77999878
C    12.27000046  16.73999977  46.59000015
C    12.96000004  17.19000053  45.45000076
C    14.29999924  16.88999939  45.31999969
C     4.46000004  18.27000046  46.18999863
H     4.08798170  17.72575188  45.32195663
H     9.00000000  18.57999992  44.01000214
H     9.85999966  15.73999977  47.97999954
H     7.71000004  16.31000137  48.90999603
H     5.53999996  17.12000084  48.63999939
H     6.74000025  18.79999924  44.69999695
H    14.78000069  16.97999954  44.34999847
H     3.79999995  18.13999939  47.05999756
H     4.59999990  19.27000046  45.77999878
S    15.44999981  15.76000023  48.92000198
C    18.20000076  15.55999947  48.18999863
C    16.84999847  15.81999969  47.85999680
C    16.48999977  16.28000069  46.56000137
C    17.51000023  16.54000092  45.61000061
C    18.89000130  16.20000076  45.90999985
C    19.88000107  16.25000000  44.91000366
C    21.18000031  15.90999985  45.21999741
C    21.52000046  15.40999985  46.52999878
C    20.58000183  15.34999943  47.55000305
C    19.23999977  15.73999977  47.22000122
C    15.03000069  16.36000061  46.39999771
C    14.34000015  16.04999924  47.58999634
C    12.93000031  16.21999931  47.67000198
C    22.93000031  14.92000008  46.79000092
H    23.26378441  15.31909084  47.74781799
H    18.42000008  15.08999920  49.15000153
H    17.26000023  17.01000023  44.66999817
H    19.65999985  16.65999985  43.93000031
H    22.00000000  16.00000000  44.51000214
H    20.82999992  14.96000099  48.53000259
H    12.34000015  16.06999969  48.56999969
H    23.59999847  15.21000004  45.97999954
H    22.93000031  13.81999969  46.77999878
S    16.28000069  12.76000023  52.14000320
C    18.81999969  12.10000038  51.33999634
C    17.48999977  12.18999958  51.07999802
C    16.98999977  11.92000008  49.77000427
C    17.86999893  11.49000072  48.81999969
C    19.27999878  11.47999954  48.97999573
C    20.29000092  11.33999920  47.93000031
C    21.63000107  11.39999962  48.30999756
C    22.04999924  11.56000042  49.59000015
C    21.11000061  11.73999977  50.58000183
C    19.71999931  11.72000027  50.35999680
C    15.55999947  12.25000000  49.64000320
C    15.07999992  12.81000042  50.90999985
C    13.76999950  13.22999954  51.07999802
C    23.47999954  11.38000011  49.93999863
H    23.75322151  11.61727142  50.96817780
H    19.22999954  12.42000008  52.29999924
H    17.43999863  11.26000023  47.84999847
H    19.96000099  11.19999981  46.90999985
H    22.36000061  11.10000038  47.56000137
H    21.45000076  11.97000027  51.58000183
H    13.35999966  13.45999908  52.05999756
H    23.69999886  10.31999969  49.79000092
H    24.10000038  11.89000034  49.19000244
S    12.15999985  12.30999947  47.55000305
C     9.61999989  12.92000008  48.29000092
C    10.93999958  12.98999977  48.53000259
C    11.46999931  13.35000038  49.81999969
C    10.57999992  13.68000031  50.81999969
C     9.17000008  13.64999962  50.59000015
C     8.28999996  14.09000015  51.63999939
C     6.93000031  14.23999977  51.31999969
C     6.47000027  13.83999920  50.04000092
C     7.34000015  13.42000008  49.02999878
C     8.71999931  13.38000107  49.27999878
C    12.92000008  13.07999992  49.94999695
C    13.40000057  12.48999977  48.70999908
C    14.70999908  12.02999973  48.54999924
C     5.03999996  14.11000061  49.65999985
H     4.90700579  13.91400814  48.59604645
H     9.30000019  12.43999958  47.37999725
H    10.82999992  13.83999920  51.86000061
H     8.63000011  14.42000008  52.61000061
H     6.17999983  14.77000046  51.90000153
H     6.98000002  13.21000004  48.02999878
H    14.94999981  11.39000034  47.70000076
H     4.71000004  15.10000038  49.97000122
H     4.38000011  13.45999908  50.25000000
