96

S    12.44999981  16.69000053  44.23999786
C     9.92000008  17.32999992  44.92000198
C    11.06999969  16.72999954  45.34000015
C    11.39999962  16.44000053  46.65000153
C    10.39999962  16.52000046  47.57999802
C     9.07999992  16.95000076  47.14000320
C     7.96999979  16.82999992  48.06000137
C     6.76000023  17.32999992  47.74000168
C     6.51000023  17.82999992  46.42000198
C     7.57000017  17.93000031  45.54000092
C     8.84000015  17.42000008  45.83000183
C    12.81999969  16.15999985  46.79000092
C    13.50999928  16.26000023  45.56000137
C    14.92000008  16.31000137  45.52999878
C     5.14999962  18.23999977  46.00000000
H     4.79348612  17.59827423  45.19427872
H     9.89000034  17.88999939  43.99000168
H    10.48999977  16.13999939  48.60000229
H     8.03999996  16.36000061  49.03999710
H     6.01000023  17.29999924  48.52000427
H     7.36000013  18.30999947  44.54000092
H    15.57000065  16.38000107  44.66999817
H     4.51000023  18.22000122  46.88999939
H     5.09999990  19.29000092  45.68999863
S    15.88999939  15.53999996  49.33000183
C    18.54999924  14.73000050  48.59000397
C    17.29999924  15.29999924  48.29999924
C    16.98999977  15.72000027  46.97000122
C    17.94999886  15.70000076  46.00000000
C    19.27000046  15.36000061  46.33999634
C    20.31999969  15.31000042  45.41999817
C    21.55999947  14.80000019  45.70999908
C    21.88999939  14.45000076  47.05999756
C    20.88000107  14.34000015  48.00000000
C    19.54000092  14.73999977  47.58999634
C    15.59000015  16.03999901  46.70999908
C    14.85999966  15.98000050  47.95000076
C    13.48999977  16.02000046  48.02000046
C    23.31000137  14.19999981  47.37999725
H    23.56945992  14.40900707  48.41783142
H    18.79999924  14.17000008  49.47999954
H    17.70000076  15.88999939  44.95999908
H    20.10000038  15.70000076  44.41999817
H    22.39000130  14.70000076  45.02999878
H    21.04999924  14.01000023  49.02000046
H    13.00000000  16.03000069  48.99000168
H    23.81999969  14.75000000  46.58000183
H    23.47999954  13.12999916  47.18000031
S    11.92999935  17.13999939  51.26999664
C     9.21000004  17.46999931  51.84000015
C    10.47000027  17.22999954  52.25999832
C    10.80999947  16.79000092  53.60000229
C     9.80000019  16.72000122  54.47000122
C     8.52999973  17.05999947  54.12000275
C     7.44000006  16.90999985  55.00999832
C     6.17000008  17.20000076  54.61999893
C     5.88000011  17.72999954  53.34000015
C     6.88000011  17.89999962  52.43000031
C     8.17000008  17.43000031  52.78999710
C    12.20999908  16.61000061  53.83999634
C    12.97000027  16.79999924  52.63999939
C    14.37999916  16.64999962  52.55000305
C     4.42999983  18.18000031  52.93000031
H     4.11699009  17.68202972  52.01231384
H     8.93000031  17.92000008  50.89000320
H     9.98999977  16.18999863  55.40999985
H     7.60999966  16.57999992  56.03000259
H     5.27999973  17.10000038  55.24000168
H     6.63999987  18.22999954  51.42000198
H    14.85000038  16.87999916  51.59999847
H     3.76999998  17.87999916  53.75000000
H     4.41000032  19.27000046  52.77999878
S    15.57999992  15.64000034  56.07999802
C    18.32999992  15.50000000  55.31000137
C    16.97000122  15.67000008  54.97000122
C    16.53000069  15.98999977  53.63999939
C    17.46999931  16.13000107  52.62000275
C    18.77000046  15.67000008  52.87000275
C    19.72999954  15.50000000  51.79000092
C    21.01000023  15.06000042  51.98999786
C    21.45000076  14.85999966  53.30999756
C    20.59000015  15.08999920  54.34999847
C    19.22999954  15.40999985  54.20999908
C    15.13000011  16.21000099  53.62999725
C    14.40000057  16.01000023  54.82999802
C    12.97000027  16.18000031  54.94999695
C    22.88999939  14.37000084  53.61000061
H    23.23219681  14.91472054  54.48993301
H    18.71000099  15.07999992  56.24000168
H    17.06999969  16.39999962  51.65000153
H    19.40999985  15.73999977  50.77999878
H    21.65999985  14.77000046  51.16000366
H    20.94000053  14.84000015  55.34999847
H    12.50000000  16.05999947  55.91999817
H    23.65999985  14.40999985  52.83000183
H    22.82999992  13.30999947  53.86000061
