96

S    12.51000023  16.69000053  44.40000153
C     9.85000038  17.13000107  45.13999939
C    11.10999966  16.70999908  45.44000244
C    11.39999962  16.29999924  46.79999924
C    10.39000034  16.21999931  47.77000046
C     9.09000015  16.53000069  47.38999939
C     8.05000019  16.13000107  48.20999908
C     6.71999979  16.34000015  47.88999939
C     6.40999985  16.88999939  46.60999680
C     7.44999981  17.10000038  45.68999863
C     8.84000015  16.97999954  46.06999969
C    12.79999924  16.04999924  46.93000031
C    13.50999928  16.21000099  45.66999817
C    14.85999966  16.06999969  45.58000183
C     5.03999996  17.28999901  46.17000198
H     4.63946867  16.71781158  45.33317566
H     9.80000019  17.28999901  44.06000137
H    10.59000015  15.73999977  48.73000336
H     8.19000053  15.77000046  49.22999954
H     6.00000000  16.46999931  48.68999863
H     7.23999977  17.43999863  44.68000031
H    15.24000072  16.18000031  44.56999969
H     4.34999990  17.13000107  47.00000000
H     5.03999996  18.38000107  45.98999786
S    15.95999908  15.36999893  49.29000092
C    18.61999893  14.70999908  48.48999786
C    17.36999893  15.19999981  48.20000076
C    17.05000114  15.57999992  46.84000015
C    18.02000046  15.69000053  45.97000122
C    19.34999847  15.24000072  46.17000198
C    20.42000008  15.31999969  45.22999573
C    21.70999908  14.92000008  45.47000122
C    21.94000053  14.39000034  46.79000092
C    20.95000076  14.32000065  47.75000000
C    19.62000084  14.68999958  47.49000168
C    15.64000034  15.80000019  46.68000031
C    14.96999931  15.69000053  47.90999985
C    13.56999969  15.82999992  48.06000137
C    23.31999969  13.94999981  47.12999725
H    23.58342743  14.26464844  48.13980103
H    18.89999962  14.32000065  49.47000122
H    17.76000023  16.06999969  44.98000336
H    20.09000015  15.75000000  44.27999878
H    22.47999954  14.75999928  44.72999954
H    21.09999847  13.93000031  48.75000000
H    13.05999947  15.80999947  49.01000214
H    24.02000046  14.28999996  46.36000061
H    23.42000008  12.86000061  47.18000031
S    11.63000011  16.88999939  50.68999863
C     8.89999962  17.05999947  51.45000076
C    10.22999954  16.70999908  51.75000000
C    10.62000084  16.40999985  53.09000015
C     9.67000008  16.28000069  54.09000015
C     8.30999947  16.64999962  53.82999802
C     7.36000013  16.70999908  54.86999893
C     6.09000015  17.05000114  54.56999969
C     5.68000031  17.46999931  53.27999878
C     6.61000013  17.52000046  52.25000000
C     7.95000029  17.05999947  52.45999908
C    12.07999992  16.34000015  53.26000214
C    12.74000072  16.56999969  52.02000046
C    14.09999943  16.73999977  52.04999924
C     4.21999979  17.71999931  52.94000244
H     3.85217333  17.15411186  52.08409500
H     8.60999966  17.50000000  50.50000000
H     9.94000053  16.13000107  55.13000107
H     7.69999981  16.31999969  55.81999969
H     5.35000038  16.88999939  55.34999847
H     6.32999992  17.79999924  51.24000168
H    14.60999966  17.17000008  51.19999695
H     3.65000010  17.60000038  53.87000275
H     4.09000015  18.77000046  52.65999603
S    15.26000023  15.93000031  55.81999969
C    17.85000038  15.59000015  55.13000107
C    16.63999939  16.03999901  54.75000000
C    16.29999924  16.47999954  53.43999863
C    17.29999924  16.44000053  52.49000168
C    18.63999939  16.03999901  52.88000107
C    19.64999962  15.93999958  51.90000153
C    20.85000038  15.31999969  52.15999985
C    21.11000061  14.88000011  53.46000290
C    20.13000107  15.01000023  54.45999908
C    18.85000038  15.53999996  54.20999908
C    14.85999966  16.50000000  53.25000000
C    14.15999985  16.32999992  54.47999954
C    12.76999950  16.17000008  54.45999908
C    22.53000069  14.63000107  53.86000061
H    22.82540894  15.15597439  54.76784897
H    18.11000061  15.17000008  56.10000229
H    17.07999992  16.68000031  51.45000076
H    19.40999985  16.31999969  50.90999985
H    21.63999939  15.26999950  51.40999603
H    20.40999985  14.80999947  55.50000000
H    12.22000027  15.98999977  55.38000107
H    23.25000000  14.92000008  53.09000015
H    22.55000114  13.53999996  54.00000000
