96

S    12.23999977  17.04000092  44.41999817
C     9.68000031  17.21999931  45.26000214
C    10.97000027  16.88999939  45.48999786
C    11.39000034  16.50000000  46.79999924
C    10.44999981  16.54000092  47.87000275
C     9.06000042  16.82999992  47.55000305
C     8.05999947  16.67000008  48.52000427
C     6.75000000  16.93000031  48.18999863
C     6.39999962  17.46999931  46.93000031
C     7.36000013  17.60000038  45.96000290
C     8.69000053  17.14999962  46.25999832
C    12.88000011  16.42000008  46.91999817
C    13.50000000  16.79000092  45.72999954
C    14.89999962  16.90000153  45.65999985
C     4.97000027  17.84000015  46.62000275
H     4.70392227  17.30784416  45.70670319
H     9.35000038  17.64000130  44.31000137
H    10.72999954  16.13000107  48.82999802
H     8.34999943  16.36000061  49.52000046
H     6.06999969  16.86000061  49.02999878
H     7.17999983  18.01000023  44.95999908
H    15.36000061  17.20000076  44.72999954
H     4.32999992  17.65999985  47.50000000
H     4.88000011  18.90999985  46.42000198
S    16.03999901  15.73999977  49.25000000
C    18.67000008  15.19999981  48.46000290
C    17.36999893  15.60999966  48.06000137
C    17.10000038  16.17000008  46.84000015
C    18.09999847  16.22999954  45.90999985
C    19.42000008  15.72000027  46.18999863
C    20.48999977  15.98999977  45.30000305
C    21.77000046  15.71000004  45.76000214
C    22.04999924  14.93000031  46.91999817
C    21.02999878  14.88000011  47.81999969
C    19.71999931  15.25000000  47.52999878
C    15.65000057  16.47999954  46.75000000
C    15.01000023  16.21999931  47.97000122
C    13.63999939  16.10999870  48.08000183
C    23.51000023  14.59000015  47.31999969
H    23.88319016  15.12905216  48.19077682
H    18.88000107  14.82999992  49.47000122
H    17.95999908  16.63999939  44.91000366
H    20.30999947  16.59000015  44.41999817
H    22.56000137  16.21000099  45.20000076
H    21.27000046  14.61999989  48.85000229
H    13.12999916  15.80000019  48.99000168
H    24.11000061  14.68999958  46.40999603
H    23.48999977  13.50999928  47.49000168
S    16.29999924  13.07000065  52.30999756
C    18.75000000  12.20999908  51.52999878
C    17.43000031  12.27000046  51.25000000
C    16.90999985  12.09000015  49.87999725
C    17.79999924  11.64999962  48.94000244
C    19.14999962  11.39000034  49.25000000
C    20.00999832  10.85000038  48.23999786
C    21.34000015  10.98000050  48.44999695
C    21.84999847  11.36999989  49.71000290
C    21.02000046  11.82999992  50.73999786
C    19.63999939  11.69999981  50.54000092
C    15.52000046  12.41000080  49.86000061
C    15.01999950  13.02000046  51.07999802
C    13.66000080  13.36999989  51.09000397
C    23.38999939  11.35000038  49.95999908
H    23.60521889  11.69435120  50.97153473
H    19.09000015  12.72999954  52.42000198
H    17.48999977  11.44000053  47.91999817
H    19.65999985  10.67000008  47.22999954
H    22.06999969  10.72000027  47.69000244
H    21.31999969  12.20000076  51.72000122
H    13.17999935  13.73999977  52.00000000
H    23.72999954  10.31999969  49.79999924
H    23.88000107  12.00000000  49.22000122
S    12.10999966  12.17000008  47.58999634
C     9.52999973  13.02000046  48.36000061
C    10.86999989  12.94000053  48.68999863
C    11.36999989  13.26000023  49.95999908
C    10.48999977  13.78000069  50.93000031
C     9.10000038  13.73999977  50.65999985
C     8.13000011  14.14999962  51.63000107
C     6.80000019  14.30999947  51.30000305
C     6.38999987  13.97999954  50.01999664
C     7.26999998  13.47000027  49.09000015
C     8.64000034  13.45999908  49.34000015
C    12.81999969  13.15000057  49.99000168
C    13.38000107  12.51000023  48.82999802
C    14.70000076  12.13999939  48.75000000
C     4.96000004  13.97999954  49.72000122
H     4.69872236  13.86701488  48.66782761
H     9.18000031  12.61999989  47.41000366
H    10.95999908  14.07999992  51.86000061
H     8.52999973  14.40000057  52.61000061
H     6.06999969  14.55000019  52.06999969
H     6.88000011  13.22000027  48.09999847
H    15.11000061  11.59999943  47.90999985
H     4.46000004  14.80999947  50.24000168
H     4.67999983  13.02999973  50.18000031
