96

S    12.76999950  16.82999992  44.26000214
C     9.96000004  16.90000153  44.56999969
C    11.21999931  16.55999947  45.06000137
C    11.46000004  16.09000015  46.40999603
C    10.42000008  16.03000069  47.25999832
C     9.13999939  16.38000107  46.86000061
C     8.11999989  16.28000069  47.72999573
C     6.80999994  16.67000008  47.37999725
C     6.51000023  17.23999977  46.09000397
C     7.57000017  17.31999969  45.20999908
C     8.89000034  16.88999939  45.52000046
C    12.84000015  15.93999958  46.68000031
C    13.71000099  16.28999901  45.59999847
C    15.03000069  16.34000015  45.63000107
C     5.14999962  17.73999977  45.76000214
H     4.71617460  17.13548851  44.96347046
H     9.70000076  17.11000061  43.53000259
H    10.72000027  15.67999935  48.23999786
H     8.23000050  16.04999924  48.79000092
H     6.02999973  16.67000008  48.13999939
H     7.36999989  17.67000008  44.19000244
H    15.62000084  16.67000008  44.78000259
H     4.53000021  17.61999893  46.65999985
H     5.15999985  18.81000137  45.52000046
S    15.86999989  15.07999992  49.27999878
C    18.53999901  14.56999969  48.61000061
C    17.32999992  15.18000031  48.31999969
C    17.06999969  15.57000065  47.00000000
C    18.07999992  15.62999916  46.09000397
C    19.34999847  15.18000031  46.42000198
C    20.36999893  15.19000053  45.47999954
C    21.59000015  14.85000038  45.86000061
C    21.88999939  14.44000053  47.15000153
C    20.89999962  14.37999916  48.04999924
C    19.55999947  14.68000031  47.70000076
C    15.69000053  15.93000031  46.76000214
C    14.89999962  15.59999943  47.90999985
C    13.48000050  15.65000057  47.90999985
C    23.26999855  13.96000004  47.51999664
H    23.58626175  14.45278358  48.43936539
H    18.59000015  14.06999969  49.58000183
H    17.94000053  15.76000023  45.01999664
H    20.23999977  15.48999977  44.43999863
H    22.42000198  15.05000019  45.18000031
H    21.04000092  13.93000031  49.02999878
H    12.82999992  15.57000065  48.76999664
H    23.92999840  14.32999992  46.72000122
H    23.26999855  12.86000061  47.51999664
S    15.75000000  12.84999943  52.49000168
C    18.37000084  12.28000069  51.60999680
C    17.00000000  12.27000046  51.36000061
C    16.48999977  11.78999996  50.13000107
C    17.38000107  11.30000019  49.18000031
C    18.76000023  11.33999920  49.41999817
C    19.70999908  10.81999969  48.43000031
C    21.00000000  10.62999916  48.83999634
C    21.52000046  10.98000050  50.13000107
C    20.69999886  11.67000008  50.98999786
C    19.29000092  11.77000046  50.65999985
C    15.07999992  11.92000008  50.07999802
C    14.55999947  12.63000011  51.16000366
C    13.17000008  12.98999977  51.25999832
C    23.00000000  10.82999992  50.41999817
H    23.30610275  11.19732285  51.39952469
H    18.77000046  12.51999950  52.58999634
H    16.97000122  10.80999947  48.29999924
H    19.43000031  10.62000084  47.39999771
H    21.55999947  10.05000019  48.11000061
H    20.98999977  12.15999985  51.91999817
H    12.61000061  13.31999969  52.12999725
H    23.22000122   9.76000023  50.51000214
H    23.62999916  11.21999931  49.61000061
S    11.59999943  11.97000027  47.76000214
C     9.09000015  12.76000023  48.59000397
C    10.40999985  12.60000038  48.88000107
C    10.90000057  12.94000053  50.15999603
C    10.06000042  13.42000008  51.13999939
C     8.71000004  13.66000080  50.79999924
C     7.78999996  14.21000004  51.70999908
C     6.44000006  14.35999966  51.36000061
C     5.98999977  13.92000008  50.11000061
C     6.84000015  13.35999966  49.15000153
C     8.18000031  13.25000000  49.51000214
C    12.31999969  12.65999985  50.24000168
C    12.84000015  11.98999977  49.06999969
C    14.18000031  11.61999893  48.97999573
C     4.51000023  13.94000053  49.87999725
H     4.35450840  13.84105110  48.80569077
H     8.63000011  12.56000042  47.63000107
H    10.52000046  13.59000015  52.11000061
H     8.22000027  14.65999985  52.61000061
H     5.69999981  14.93000031  51.90999985
H     6.51999998  12.89999962  48.22000122
H    14.60000038  11.14999962  48.09000015
H     4.11000013  14.93000031  50.13999939
H     3.98999977  13.15000057  50.44000244
