96

S    12.56999969  16.63999939  44.26000214
C     9.81999969  17.11000061  44.98000336
C    11.10999966  16.61000061  45.30000305
C    11.36000061  16.18000031  46.63000107
C    10.29999924  15.90999985  47.49000168
C     8.96000004  16.44000053  47.25999832
C     7.82000017  16.32999992  48.15000153
C     6.53999996  16.82999992  47.83000183
C     6.30999994  17.30999947  46.46999741
C     7.40999985  17.30999947  45.56999969
C     8.76000023  16.98999977  45.94999695
C    12.82999992  16.15999985  46.81999969
C    13.60000038  16.39000130  45.66999817
C    14.98000050  16.35000038  45.63999939
C     4.90999985  17.68000031  46.04999924
H     4.48553085  16.95631409  45.35414886
H     9.56999969  17.56000137  44.02000046
H    10.42000008  15.39000034  48.43999863
H     7.92000008  15.80999947  49.09999847
H     5.73000002  16.72999954  48.54000092
H     7.23999977  17.71999931  44.58000183
H    15.47000027  16.28999901  44.66999817
H     4.30999994  17.81999969  46.95999908
H     4.94999981  18.67000008  45.56999969
S    16.00000000  15.15999985  49.20000076
C    18.63999939  14.70999908  48.46000290
C    17.39999962  15.24000072  48.13000107
C    17.12000084  15.72999954  46.84999847
C    18.11000061  15.85999966  45.90000153
C    19.40999985  15.44000053  46.20999908
C    20.50000000  15.52000046  45.31000137
C    21.77000046  15.14999962  45.68999863
C    21.98999786  14.55000019  46.93999863
C    20.92000008  14.30999947  47.81000137
C    19.65999985  14.81999969  47.47000122
C    15.65000057  16.06999969  46.79999924
C    14.93000031  15.78999996  47.98999786
C    13.52000046  15.80999947  47.97999954
C    23.40999985  14.26000023  47.29000092
H    23.63786125  14.67299938  48.27265549
H    18.86000061  14.25000000  49.41999817
H    17.85000038  16.25000000  44.91000366
H    20.30999947  15.98000050  44.34000015
H    22.56999969  15.22999954  44.97000122
H    21.11999893  13.76999950  48.74000168
H    12.98999977  15.38000011  48.82999802
H    23.97999954  14.78999996  46.51000214
H    23.47999954  13.17000008  47.22000122
S    11.73999977  16.88999939  50.48999786
C     9.03999996  17.18000031  51.17000198
C    10.29999924  16.69999886  51.46999741
C    10.60999966  16.26000023  52.78999710
C     9.56999969  16.03000069  53.75999832
C     8.26000023  16.48999977  53.43999863
C     7.30999994  16.62999916  54.47000122
C     6.11000013  17.26000023  54.22999954
C     5.77000046  17.59000015  52.88000107
C     6.75000000  17.53000069  51.88000107
C     8.01000023  17.04000092  52.12999725
C    12.05999947  16.13000107  52.97000122
C    12.84000015  16.43000031  51.81000137
C    14.21000004  16.59000015  51.88999939
C     4.38000011  18.07999992  52.60000229
H     3.99828863  17.69828987  51.65306473
H     8.82000065  17.60000038  50.19000244
H     9.85999966  15.71000004  54.75999832
H     7.59999990  16.13999939  55.40000153
H     5.36000013  17.32999992  55.01999664
H     6.60000038  17.92000008  50.86999893
H    14.82999992  16.82999992  51.03000259
H     3.68999982  17.82999992  53.41999817
H     4.26999998  19.17000008  52.51999664
S    15.17000008  15.78999996  55.61000061
C    17.95999908  15.52999973  55.06999969
C    16.64999962  15.76000023  54.61000061
C    16.31000137  16.10999870  53.30999756
C    17.31999969  16.13000107  52.45999908
C    18.65999985  15.72999954  52.77000046
C    19.78000069  15.81999969  51.79000092
C    21.01000023  15.39999962  52.15999985
C    21.31000137  15.10000038  53.54999924
C    20.34000015  15.21999931  54.47000122
C    18.98999977  15.43000031  54.10999680
C    14.88999939  16.21999931  53.06000137
C    14.09999943  16.04999924  54.22999954
C    12.72999954  15.95000076  54.19000244
C    22.69000053  14.78000069  53.83999634
H    22.97831535  15.28631210  54.76120377
H    18.27000046  15.29999924  56.09000397
H    17.11000061  16.36999893  51.42000198
H    19.54000092  16.15999985  50.77999878
H    21.76000214  15.31999969  51.37000275
H    20.59999847  15.01000023  55.50000000
H    12.11999989  15.82999992  55.06999969
H    23.29999924  15.08999920  52.98999786
H    22.76000023  13.68999958  53.92000198
