96

S    12.44999981  16.69000053  44.23999786
C     9.92000008  17.32999992  44.92000198
C    11.06999969  16.72999954  45.34000015
C    11.39999962  16.44000053  46.65000153
C    10.39999962  16.52000046  47.57999802
C     9.07999992  16.95000076  47.14000320
C     7.96999979  16.82999992  48.06000137
C     6.76000023  17.32999992  47.74000168
C     6.51000023  17.82999992  46.42000198
C     7.57000017  17.93000031  45.54000092
C     8.84000015  17.42000008  45.83000183
C    12.81999969  16.15999985  46.79000092
C    13.50999928  16.26000023  45.56000137
C    14.92000008  16.31000137  45.52999878
C     5.14999962  18.23999977  46.00000000
H     4.79348612  17.59827423  45.19427872
H     9.89000034  17.88999939  43.99000168
H    10.48999977  16.13999939  48.60000229
H     8.03999996  16.36000061  49.03999710
H     6.01000023  17.29999924  48.52000427
H     7.36000013  18.30999947  44.54000092
H    15.57000065  16.38000107  44.66999817
H     4.51000023  18.22000122  46.88999939
H     5.09999990  19.29000092  45.68999863
S    15.88999939  15.53999996  49.33000183
C    18.54999924  14.73000050  48.59000397
C    17.29999924  15.29999924  48.29999924
C    16.98999977  15.72000027  46.97000122
C    17.94999886  15.70000076  46.00000000
C    19.27000046  15.36000061  46.33999634
C    20.31999969  15.31000042  45.41999817
C    21.55999947  14.80000019  45.70999908
C    21.88999939  14.45000076  47.05999756
C    20.88000107  14.34000015  48.00000000
C    19.54000092  14.73999977  47.58999634
C    15.59000015  16.03999901  46.70999908
C    14.85999966  15.98000050  47.95000076
C    13.48999977  16.02000046  48.02000046
C    23.31000137  14.19999981  47.37999725
H    23.56945992  14.40900707  48.41783142
H    18.79999924  14.17000008  49.47999954
H    17.70000076  15.88999939  44.95999908
H    20.10000038  15.70000076  44.41999817
H    22.39000130  14.70000076  45.02999878
H    21.04999924  14.01000023  49.02000046
H    13.00000000  16.03000069  48.99000168
H    23.81999969  14.75000000  46.58000183
H    23.47999954  13.12999916  47.18000031
S    16.25000000  12.64999962  52.22999954
C    18.86999893  12.05999947  51.52999878
C    17.56999969  12.11999989  51.18000031
C    17.13000107  11.80999947  49.85000229
C    17.98999977  11.33999920  48.87000275
C    19.32999992  11.17000008  49.19000244
C    20.20000076  10.62000084  48.29000092
C    21.54000092  10.43000031  48.56999969
C    22.03000069  10.80999947  49.88999939
C    21.18000031  11.44999981  50.83000183
C    19.79999924  11.64000034  50.54999924
C    15.70000076  12.15000057  49.72999954
C    15.14999962  12.63000011  50.93000031
C    13.85000038  13.04999924  51.04999924
C    23.50000000  10.62999916  50.28999710
H    23.72616386  11.03855133  51.27490234
H    19.29000092  12.36999989  52.48000336
H    17.68000031  11.36999989  47.83000183
H    19.78999901  10.40999985  47.30999756
H    22.14999962   9.90999985  47.83000183
H    21.51000023  11.67000008  51.84999847
H    13.35999966  13.35999966  51.97999954
H    23.75000000   9.57999992  50.08999634
H    24.14999962  11.18999958  49.59999847
S    12.30000019  12.05000019  47.45999908
C     9.77999973  12.61000061  48.26000214
C    11.06999969  12.64999962  48.54000092
C    11.64999962  13.04999924  49.79000092
C    10.80000019  13.50000000  50.75000000
C     9.48000050  13.68000031  50.37000275
C     8.57999992  14.26000023  51.27999878
C     7.26000023  14.47999954  50.97000122
C     6.74000025  14.04000092  49.75000000
C     7.53999996  13.35000038  48.89999771
C     8.92000008  13.20000076  49.18000031
C    13.07000065  12.86000061  49.92000198
C    13.59000015  12.35999966  48.68999863
C    14.93000031  11.98999977  48.55999756
C     5.25000000  14.18000031  49.41999817
H     5.04590654  13.79368019  48.42139816
H     9.28999996  12.30999947  47.34000397
H    11.26999950  13.92000008  51.63999939
H     8.85999966  14.39000034  52.31999969
H     6.56000042  14.78000069  51.75000000
H     7.23000002  12.84999943  47.97999954
H    15.22999954  11.59000015  47.60000229
H     4.94000006  15.21999931  49.52999878
H     4.56999969  13.63000011  50.07999802
