96

S    11.95000076  16.52000046  44.03999710
C     9.32999992  16.98999977  44.75999832
C    10.57000065  16.51000023  45.13000107
C    10.95999908  16.32999992  46.50000000
C     9.96000004  16.31999969  47.50999832
C     8.60999966  16.55999947  47.19999695
C     7.63000011  16.52000046  48.18000031
C     6.34000015  16.92000008  47.85999680
C     6.00000000  17.43000031  46.50000000
C     6.96000004  17.47999954  45.56999969
C     8.32999992  16.94000053  45.79999924
C    12.41000080  16.11999893  46.62000275
C    13.12000084  16.38000107  45.38999939
C    14.52000046  16.39999962  45.34999847
C     4.56999969  17.69000053  46.10000229
H     4.24034548  17.08197212  45.25754929
H     9.15999985  17.56999969  43.86000061
H    10.31999969  16.13000107  48.52000427
H     7.82000017  16.28000069  49.22000122
H     5.59000015  16.79000092  48.63999939
H     6.71000004  17.97000122  44.62999725
H    15.06000042  16.29999924  44.40999985
H     3.84999990  17.43000031  46.88999939
H     4.50000000  18.77000046  45.90999985
S    15.55999947  15.76000023  49.16999817
C    18.19000053  15.03000069  48.47000122
C    17.01000023  15.62000084  48.20000076
C    16.69000053  16.06999969  46.79999924
C    17.73999977  16.09000015  45.86999893
C    19.06999969  15.67000008  46.20999908
C    20.06999969  15.57999992  45.24000168
C    21.35999870  15.29000092  45.68999863
C    21.55999947  14.77000046  47.01000214
C    20.55000114  14.63999939  47.91999817
C    19.25000000  15.07999992  47.51999664
C    15.22999954  16.21999931  46.56999969
C    14.52000046  16.03000069  47.77000046
C    13.10999966  15.86999989  47.77000046
C    22.95000076  14.28999996  47.42000198
H    23.25892448  14.71387291  48.37551117
H    18.22999954  14.56999969  49.45000076
H    17.43000031  16.32999992  44.85000229
H    19.90999985  15.75000000  44.18000031
H    22.19000053  15.36999893  45.00999832
H    20.76000023  14.11999893  48.85000229
H    12.48999977  15.67999935  48.63999939
H    23.62999916  14.52000046  46.58000183
H    22.93000031  13.19000053  47.51999664
S    12.02000046  16.80999947  51.18000031
C     9.27999973  17.09000015  51.76000214
C    10.54999924  16.80999947  52.22000122
C    10.90000057  16.59000015  53.59000397
C     9.85999966  16.48999977  54.47999954
C     8.52000046  16.95000076  54.09999847
C     7.46000004  17.13000107  55.02999878
C     6.19999981  17.46999931  54.66999817
C     5.86000013  17.56000137  53.30999756
C     6.86999989  17.56999969  52.37999725
C     8.23000050  17.21999931  52.72999573
C    12.34000015  16.52000046  53.83999634
C    13.04999924  16.75000000  52.62000275
C    14.46000004  16.79000092  52.51999664
C     4.51000023  18.00000000  52.84999847
H     4.08506250  17.39189911  52.05141068
H     8.98999977  17.02999878  50.72000122
H    10.19000053  16.54999924  55.51000214
H     7.85000038  17.11000061  56.04999924
H     5.65999985  18.04999924  55.40999985
H     6.56000042  17.87999916  51.38000107
H    14.96999931  16.84000015  51.56999969
H     3.79999995  18.12999916  53.67000198
H     4.61999989  19.04000092  52.54000092
S    15.54999924  15.55999947  56.14999771
C    18.19000053  15.21000004  55.38000107
C    16.93000031  15.65999985  55.01999664
C    16.62999916  16.09000015  53.73000336
C    17.54999924  16.03999901  52.72999573
C    18.89999962  15.67999935  53.08000183
C    19.96999931  15.64000034  52.21000290
C    21.14999962  15.00000000  52.49000168
C    21.38999939  14.47000027  53.76999664
C    20.43000031  14.65999985  54.75000000
C    19.19000053  15.26999950  54.43000031
C    15.18000031  16.36000061  53.64999771
C    14.50000000  16.04999924  54.82999802
C    13.07999992  16.14999962  54.87999725
C    22.82999992  14.17000008  54.19000244
H    23.07343674  14.62736511  55.14899063
H    18.31999969  14.61999989  56.27999878
H    17.38000107  16.26000023  51.68000031
H    19.80999947  16.07999992  51.23000336
H    21.94000053  15.03999901  51.73999786
H    20.78000069  14.59000015  55.77999878
H    12.57999992  15.80999947  55.77999878
H    23.46999931  14.52000046  53.36999893
H    22.88999939  13.09000015  54.38999939
