96

S    12.25999928  17.28000069  44.23999786
C     9.63000011  17.28999901  44.94999695
C    10.88000107  16.95000076  45.28999710
C    11.23999977  16.53000069  46.55000305
C    10.29999924  16.34000015  47.56000137
C     8.98999977  16.70999908  47.29000092
C     7.97999954  16.67000008  48.31999969
C     6.75000000  17.01000023  48.00000000
C     6.42000008  17.56999969  46.65999985
C     7.40000010  17.64000130  45.73999786
C     8.69000053  17.13000107  45.97000122
C    12.69000053  16.31999969  46.59999847
C    13.45000076  16.76000023  45.50000000
C    14.89999962  16.87999916  45.47000122
C     4.99000025  18.02000046  46.26999664
H     4.67202044  17.46353531  45.38832855
H     9.42000008  17.85000038  44.05000305
H    10.59999943  16.25000000  48.60000229
H     8.14999962  16.29999924  49.33000183
H     5.95000029  16.97999954  48.73000336
H     7.26000023  17.97999954  44.72000122
H    15.32999992  17.17000008  44.51000214
H     4.19999981  17.94999886  47.02999878
H     5.01999950  19.01000023  45.79000092
S    15.69000053  15.85000038  49.22000122
C    18.30999947  15.31999969  48.56999969
C    17.14999962  15.93999958  48.20000076
C    16.93000031  16.29999924  46.90999985
C    17.97000122  16.31999969  45.97000122
C    19.23999977  15.88000107  46.29000092
C    20.27000046  15.90999985  45.35999680
C    21.51000023  15.36999893  45.70999908
C    21.84999847  14.89999962  47.05999756
C    20.76999855  14.78999996  47.93000031
C    19.44000053  15.27999973  47.58999634
C    15.52000046  16.53000069  46.63000107
C    14.73999977  16.10999870  47.76000214
C    13.35000038  16.05999947  47.77000046
C    23.28000069  14.42999935  47.49000168
H    23.72033119  14.99304771  48.31291580
H    18.38000107  14.89999962  49.56999969
H    17.80999947  16.61000061  44.93000031
H    20.12000084  16.43000031  44.41999817
H    22.39000130  15.57999992  45.11000061
H    20.82999992  14.30999947  48.89999771
H    12.89999962  16.13000107  48.75000000
H    23.90999985  14.65999985  46.62000275
H    23.16999817  13.35000038  47.62000275
S    11.51000023  17.18000031  50.94999695
C     8.93000031  17.43999863  51.65000153
C    10.14999962  17.02000046  51.97000122
C    10.48999977  16.47999954  53.27999878
C     9.59000015  16.23999977  54.29000092
C     8.27000046  16.68000031  53.99000168
C     7.22000027  16.50000000  55.00000000
C     5.92000008  16.94000053  54.73999786
C     5.68000031  17.75000000  53.57999802
C     6.65999985  17.87999916  52.57999802
C     7.95000029  17.30999947  52.70999908
C    11.92000008  16.42000008  53.40000153
C    12.56000042  16.77000046  52.25000000
C    13.96000004  16.84999847  52.18000031
C     4.32999992  18.26000023  53.33000183
H     3.92769837  17.66373253  52.51102829
H     8.53999996  17.87999916  50.73999786
H     9.88000011  15.81999969  55.25000000
H     7.40999985  15.84000015  55.84000015
H     5.09999990  16.56999969  55.34999847
H     6.39999962  18.47999954  51.70999908
H    14.50000000  17.23999977  51.31999969
H     3.74000025  18.22000122  54.26000214
H     4.26999998  19.29999924  53.01000214
S    15.01000023  15.42000008  55.68999863
C    17.72999954  15.05000019  55.02999878
C    16.53000069  15.60999966  54.68000031
C    16.23999977  16.27000046  53.36000061
C    17.29999924  16.51000023  52.49000168
C    18.59000015  15.95999908  52.84000015
C    19.68000031  16.15999985  52.01000214
C    20.90999985  15.73999977  52.41000366
C    21.15999985  14.96999931  53.59000397
C    20.13000107  14.63999939  54.38999939
C    18.79999924  15.22999954  54.09000015
C    14.77000046  16.48999977  53.22999954
C    14.07999992  16.10000038  54.36999893
C    12.68000031  16.04999924  54.45999908
C    22.63000107  14.55000019  53.92000198
H    22.84723091  14.78171158  54.96269989
H    17.86999893  14.53999996  55.97999954
H    17.23999977  16.95999908  51.50000000
H    19.59000015  16.69000053  51.06999969
H    21.78999901  15.97000027  51.81999969
H    20.35000038  13.93000031  55.17000198
H    12.17000008  15.65000057  55.34000015
H    23.36000061  15.06000042  53.27999878
H    22.60000038  13.48999977  53.62999725
