96

S    11.94000053  16.92000008  44.12000275
C     9.23999977  17.50000000  44.68999863
C    10.47999954  16.95999908  45.06999969
C    10.65999985  16.39000130  46.42000198
C     9.61000061  16.35000038  47.30999756
C     8.36000061  16.87999916  46.95000076
C     7.25000000  16.84999847  47.87000275
C     5.98000002  17.25000000  47.45999908
C     5.82000017  17.86999893  46.25000000
C     6.83000040  18.04000092  45.31999969
C     8.14999962  17.50000000  45.59999847
C    12.09000015  16.22999954  46.72000122
C    12.89999962  16.40999985  45.52000046
C    14.30999947  16.36000061  45.47000122
C     4.42000008  18.38000107  45.75000000
H     4.05230427  17.83552933  44.88026047
H     9.06999969  18.07999992  43.77999878
H     9.76000023  15.93000031  48.29999924
H     7.36000013  16.62999916  48.93000031
H     5.26000023  17.18000031  48.26000214
H     6.63000011  18.53999901  44.36999893
H    14.96000099  16.68000031  44.66999817
H     3.63999987  18.27999878  46.51000214
H     4.55999994  19.40999985  45.38999939
S    15.25000000  15.36999893  49.16999817
C    18.01000023  15.08999920  48.44999695
C    16.67000008  15.44000053  48.15000153
C    16.28999901  15.76000023  46.81000137
C    17.23999977  15.85999966  45.79999924
C    18.57999992  15.47999954  46.04999924
C    19.57999992  15.48999977  45.04000092
C    20.86999893  15.10000038  45.37000275
C    21.24000168  14.80000019  46.75000000
C    20.32999992  14.93999958  47.70999908
C    18.93000031  15.07999992  47.37999725
C    14.88999939  15.93000031  46.63000107
C    14.14999962  15.84000015  47.84999847
C    12.76000023  15.95999908  47.90000153
C    22.69000053  14.34000015  47.14000320
H    23.05965614  14.92405701  47.98281479
H    18.37000084  14.80999947  49.43000031
H    16.95999908  16.14999962  44.79000092
H    19.38999939  15.67000008  43.97999573
H    21.61999893  15.08999920  44.58000183
H    20.51000214  14.72000027  48.75999832
H    12.30000019  15.77999973  48.87000275
H    23.32999992  14.32999992  46.25000000
H    22.65999985  13.34000015  47.57999802
S    15.95000076  12.68000031  52.30999756
C    18.55999947  12.35999966  51.51000214
C    17.22999954  12.25000000  51.23000336
C    16.75000000  11.90999985  49.93999863
C    17.56999969  11.54000092  48.89999771
C    18.96999931  11.61000061  49.13999939
C    19.96000099  11.10000038  48.20000076
C    21.24000168  11.05999947  48.59000397
C    21.75000000  11.59000015  49.81999969
C    20.86999893  12.30999947  50.59999847
C    19.47000122  12.05000019  50.44000244
C    15.26000023  11.94000053  49.86000061
C    14.75000000  12.48000050  51.04000092
C    13.45999908  12.88000011  51.17000198
C    23.09000015  11.23000050  50.27000046
H    23.38614273  11.63448811  51.23788071
H    18.92000008  12.86999893  52.39999771
H    17.13000107  11.10999966  48.00000000
H    19.69000053  10.59999943  47.28000259
H    21.96000099  10.52000046  47.97999954
H    21.19999886  12.77999973  51.52000046
H    13.03999996  13.31999969  52.06999969
H    23.26000023  10.14000034  50.25000000
H    23.75000000  11.50000000  49.43999863
S    12.01000023  12.13000107  47.43000031
C     9.40999985  12.72999954  48.34000015
C    10.73999977  12.64000034  48.54999924
C    11.19999981  12.86999893  49.88999939
C    10.31999969  13.09000015  50.84000015
C     8.93999958  13.31999969  50.63000107
C     8.06999969  13.96000004  51.56999969
C     6.70000029  14.07999992  51.20999908
C     6.21999979  13.81999969  49.88999939
C     7.07000017  13.23999977  48.92000198
C     8.45000076  13.07000065  49.27999878
C    12.65999985  12.79999924  50.01999664
C    13.14000034  12.25000000  48.81000137
C    14.45000076  11.87000084  48.75999832
C     4.76000023  14.14000034  49.56999969
H     4.49301386  13.82971954  48.55978012
H     9.04999924  12.53999901  47.32999802
H    10.64000034  13.17000008  51.88000107
H     8.56000042  14.18000031  52.50999832
H     6.19000006  14.40999985  52.11000061
H     6.89000034  13.23999977  47.84999847
H    14.91000080  11.59000015  47.81000137
H     4.65999985  15.21999931  49.45999908
H     4.09999990  13.90999985  50.40999985
