96

S    12.30999947  17.05999947  44.20999908
C     9.59999943  17.46999931  44.86999893
C    10.88000107  17.07999992  45.22999573
C    11.21000099  16.61999893  46.58000183
C    10.19000053  16.40999985  47.49000168
C     8.85999966  16.90999985  47.18999863
C     7.81000042  16.79000092  48.11999893
C     6.51999998  17.12000084  47.70000076
C     6.28000021  17.72999954  46.52000046
C     7.28999996  17.94000053  45.65000153
C     8.59000015  17.46999931  45.89000320
C    12.58999920  16.36000061  46.77999878
C    13.28999996  16.44000053  45.54999924
C    14.65000057  16.39999962  45.54999924
C     4.90000010  18.13999939  46.06999969
H     4.45682144  17.44664001  45.35519409
H     9.46000004  17.90999985  43.88999939
H    10.31999969  15.93999958  48.44999695
H     8.03999996  16.25000000  49.03999710
H     5.72000027  16.87000084  48.39000320
H     7.17999983  18.47999954  44.71000290
H    15.14999962  16.53000069  44.59000015
H     4.26999998  18.20999908  46.95999908
H     4.88999987  19.11000061  45.56000137
S    15.73999977  15.50000000  49.22999954
C    18.38999939  15.11000061  48.47999954
C    17.14999962  15.54999924  48.15999985
C    16.77999878  16.03000069  46.86999893
C    17.77000046  16.21000099  45.93999863
C    19.12999916  15.80000019  46.25000000
C    20.17999840  15.98999977  45.30000305
C    21.42000008  15.47999954  45.51000214
C    21.71999931  14.84000015  46.81000137
C    20.76999855  14.63000107  47.76000214
C    19.43000031  15.19000053  47.52999878
C    15.36000061  16.10999870  46.69000244
C    14.67000008  15.98999977  47.88999939
C    13.30000019  16.04999924  47.95000076
C    23.13999939  14.47999954  47.18000031
H    23.47921753  15.17257118  47.95030975
H    18.57999992  14.60000038  49.41999817
H    17.42000008  16.36999893  44.92000198
H    19.98999977  16.54999924  44.38999939
H    22.20000076  15.64000034  44.77000427
H    21.11999893  14.21000004  48.69999695
H    12.69000053  15.84000015  48.82999802
H    23.81000137  14.51000023  46.31000137
H    23.15999985  13.50000000  47.67000198
S    15.93999958  13.20000076  52.15000153
C    18.71000099  12.71999931  51.59000015
C    17.34000015  12.65999985  51.23000336
C    16.92000008  12.11999989  50.00000000
C    17.86999893  11.68000031  49.13999939
C    19.25000000  11.59000015  49.45999908
C    20.20000076  11.10000038  48.53000259
C    21.54000092  11.09000015  48.79000092
C    21.91999817  11.36000061  50.14999771
C    21.02999878  11.92999935  51.05999756
C    19.63999939  12.05000019  50.72999954
C    15.52999973  12.36999989  49.75000000
C    14.85000038  12.89000034  50.86000061
C    13.50999928  13.23999977  50.90000153
C    23.32999992  11.17000008  50.58000183
H    23.53854752  11.58709621  51.56521225
H    19.05999947  13.15999985  52.52999878
H    17.56999969  11.57999992  48.09999847
H    19.92000008  10.80999947  47.51999664
H    22.27999878  10.84000015  48.04000092
H    21.35999870  12.36999989  52.00000000
H    13.12000084  13.76999950  51.77000046
H    23.65999985  10.13000011  50.47000122
H    23.95000076  11.69999981  49.85000229
S    12.20000076  12.39999962  47.21000290
C     9.52999973  12.97999954  47.70999908
C    10.85999966  12.94999981  48.15999985
C    11.28999901  13.23999977  49.54000092
C    10.36999893  13.52000046  50.41999817
C     9.10000038  13.56999969  50.07999802
C     8.13000011  13.94999981  51.11000061
C     6.78999996  13.96000004  50.81999969
C     6.34999990  13.81999969  49.52000046
C     7.23999977  13.56999969  48.47000122
C     8.60999966  13.35000038  48.73000336
C    12.71999931  13.01000023  49.78000259
C    13.34000015  12.51999950  48.64999771
C    14.70000076  12.20999908  48.60000229
C     4.90999985  13.99000072  49.27999878
H     4.62546539  13.40633965  48.40451050
H     9.22000027  12.81000042  46.68000031
H    10.73999977  13.68999958  51.42000198
H     8.51000023  14.19000053  52.09999847
H     6.05000019  14.18000031  51.59000015
H     6.86999989  13.45999908  47.44999695
H    15.13000011  11.97999954  47.63000107
H     4.69999981  14.98999977  48.88999939
H     4.23000002  13.82999992  50.13000107
