96

S    12.05999947  17.34000015  44.09000015
C     9.36999989  17.53999901  44.81999969
C    10.67999935  17.20999908  45.22999573
C    11.02000046  16.65999985  46.47999573
C     9.96000004  16.54999924  47.35000229
C     8.63000011  16.90000153  47.02000046
C     7.62000036  16.82999992  48.04000092
C     6.38999987  17.35000038  47.69000244
C     6.06999969  17.71999931  46.33999634
C     7.04999971  17.84000015  45.40999985
C     8.36000061  17.43999863  45.73999786
C    12.43999958  16.50000000  46.62000275
C    13.12000084  16.69999886  45.38000107
C    14.51000023  16.65999985  45.28999710
C     4.57999992  17.88999939  46.04000092
H     4.26780367  17.62136650  45.03080750
H     9.27999973  17.97999954  43.82999802
H    10.13000011  16.38000107  48.40999985
H     7.67000008  16.46999931  49.06000137
H     5.59000015  17.19000053  48.40999985
H     6.88000011  18.43000031  44.51000214
H    15.11999989  16.94000053  44.43999863
H     3.93000007  17.31999969  46.70999908
H     4.40000010  18.96999931  46.17000198
S    15.59000015  16.05999947  49.13000107
C    18.20000076  15.57000065  48.31999969
C    16.97000122  15.93000031  48.04000092
C    16.64999962  16.43000031  46.70999908
C    17.59000015  16.48999977  45.66999817
C    18.89000130  16.13999939  45.98999786
C    19.93000031  16.20000076  45.02999878
C    21.21999931  15.77000046  45.33000183
C    21.53000069  15.47000027  46.65999985
C    20.58000183  15.39000034  47.63999939
C    19.17000008  15.62999916  47.31999969
C    15.17000008  16.53000069  46.53999710
C    14.46000004  16.39999962  47.74000168
C    13.09000015  16.31999969  47.85999680
C    23.00000000  15.10000038  46.95000076
H    23.18886185  15.01606083  48.02022552
H    18.39999962  15.34000015  49.36000061
H    17.45000076  16.69000053  44.61000061
H    19.64999962  16.63999939  44.08000183
H    21.87999916  15.77000046  44.47000122
H    20.86000061  15.01000023  48.61999893
H    12.46000099  16.05999947  48.69999695
H    23.54999924  15.93999958  46.49000168
H    23.23999786  14.14999962  46.45999908
S    16.47999954  13.23999977  52.45999908
C    19.14999962  12.56999969  51.68000031
C    17.84000015  12.63000011  51.42000198
C    17.38999939  12.41000080  50.07999802
C    18.27000046  11.96000004  49.12000275
C    19.59000015  11.84999943  49.33000183
C    20.46999931  11.47999954  48.26000214
C    21.77999878  11.36000061  48.56999969
C    22.34000015  11.61000061  49.88999939
C    21.42999840  11.96000004  50.97999954
C    20.03000069  12.15000057  50.66999817
C    16.02000046  12.81000042  49.98000336
C    15.39999962  13.20000076  51.13999939
C    14.01999950  13.40999985  51.27999878
C    23.74000168  11.14999962  50.12000275
H    23.99921989  11.42323112  51.14286804
H    19.47999954  12.92000008  52.64999771
H    17.78000069  11.79999924  48.15999985
H    19.97999954  11.11999989  47.36000061
H    22.37999916  10.75000000  47.88999939
H    21.64999962  11.90000057  52.04000092
H    13.67000008  13.64999962  52.28000259
H    23.81000137  10.06000042  49.99000168
H    24.44000053  11.77999973  49.56999969
S    12.72999954  12.82999992  47.55000305
C     9.94999981  13.07000065  48.29000092
C    11.31999969  13.10999966  48.63999939
C    11.77000046  13.52000046  49.99000168
C    10.80999947  13.82999992  50.93000031
C     9.48000050  14.04999924  50.52999878
C     8.45000076  14.19000053  51.53999710
C     7.16000032  13.97999954  51.20999908
C     6.67000008  13.71999931  49.89999771
C     7.59999990  13.48000050  48.93000031
C     9.02000046  13.59000015  49.18000031
C    13.22999954  13.34000015  50.13999939
C    13.85000038  12.89000034  48.90999603
C    15.22999954  12.63000011  48.82999802
C     5.15999985  13.76999950  49.54999924
H     4.94629192  13.51944542  48.51093674
H     9.68999958  12.61000061  47.34000397
H    11.14999962  13.85000038  51.95999908
H     8.73000050  14.51000023  52.54000092
H     6.34000015  14.01000023  51.91999817
H     7.28999996  13.32999992  47.90000153
H    15.62000084  12.07999992  47.97000122
H     4.86999989  14.82999992  49.66999817
H     4.46999979  13.15000057  50.13000107
