96

S    12.00000000  16.65999985  44.43000031
C     9.42000008  16.97999954  45.20999908
C    10.67000008  16.39000130  45.50000000
C    11.02000046  15.80000019  46.75000000
C    10.00000000  15.70000076  47.70999908
C     8.61999989  16.06999969  47.31999969
C     7.55999994  16.14999962  48.27000046
C     6.30999994  16.73999977  48.00000000
C     6.07999992  17.32999992  46.75000000
C     7.09000015  17.35999870  45.86000061
C     8.38999939  16.79000092  46.13999939
C    12.46000099  15.84000015  46.90999985
C    13.14000034  16.21999931  45.75000000
C    14.52000046  16.39000130  45.68000031
C     4.67000008  17.77000046  46.35000229
H     4.21552610  17.03148079  45.68959045
H     9.31999969  17.56000137  44.29999924
H    10.29999924  15.44999981  48.72000122
H     7.78999996  15.81999969  49.27999878
H     5.55000019  16.72000122  48.77999878
H     6.90999985  17.59000015  44.80999756
H    14.96999931  16.59000015  44.71000290
H     4.00000000  17.97999954  47.18999863
H     4.79999971  18.73999977  45.86999893
S    15.67000008  15.13000011  49.22999954
C    18.30000114  14.94999981  48.43999863
C    17.02000046  15.29000092  48.15000153
C    16.63999939  15.80999947  46.83000183
C    17.61999893  15.98999977  45.90000153
C    18.89999962  15.52000046  46.14999771
C    20.00999832  15.81999969  45.27000046
C    21.28999901  15.44999981  45.51000214
C    21.61000061  14.85000038  46.70999908
C    20.61000061  14.65000057  47.70999908
C    19.27999878  15.05000019  47.45999908
C    15.19999981  16.01000023  46.77999878
C    14.52999973  15.64000034  47.95999908
C    13.17999935  15.62999916  48.08000183
C    23.08000183  14.51000023  47.08000183
H    23.44544220  15.03005219  47.96549606
H    18.53000069  14.52999973  49.40999985
H    17.47999954  16.51000023  44.94999695
H    19.76000023  16.38000107  44.36999893
H    22.11000061  15.67000008  44.82999802
H    20.86000061  14.22000027  48.68000031
H    12.65999985  15.36000061  48.99000168
H    23.72999954  14.84000015  46.25999832
H    23.08000183  13.43000031  47.29000092
S    11.72000027  16.80999947  51.12999725
C     9.00000000  17.01000023  51.95999908
C    10.27999973  16.65999985  52.16999817
C    10.60999966  16.25000000  53.47000122
C     9.64999962  16.07999992  54.48999786
C     8.27999973  16.44000053  54.25000000
C     7.26000023  16.21000099  55.19000244
C     5.96000004  16.59000015  54.84000397
C     5.63000011  17.23999977  53.66000366
C     6.60000038  17.32999992  52.67000198
C     7.96999979  16.97999954  52.97999954
C    12.05000019  16.14999962  53.66000366
C    12.74000072  16.36999893  52.44999695
C    14.11000061  16.31999969  52.34000397
C     4.17000008  17.60000038  53.33000183
H     3.86476684  16.91144943  52.54207230
H     8.73000050  17.40999985  50.98999786
H     9.96000004  15.54999924  55.38000107
H     7.40999985  15.69000053  56.12999725
H     5.19000006  16.35000038  55.58000183
H     6.34999990  17.71999931  51.69000244
H    14.55000019  16.38000107  51.35000229
H     3.61000013  17.48999977  54.26000214
H     4.21999979  18.60999870  52.90000153
S    15.26999950  15.11999989  55.93999863
C    18.00000000  14.96000099  55.18000031
C    16.68000031  15.42000008  54.87999725
C    16.34000015  15.97000027  53.62999725
C    17.35999870  16.15999985  52.67000198
C    18.73999977  15.77000046  52.95999908
C    19.80999947  15.95999908  52.02999878
C    21.05999947  15.46000004  52.29999924
C    21.42000008  14.93999958  53.57999802
C    20.40999985  14.92000008  54.52999878
C    19.02000046  15.24000072  54.25000000
C    14.86999989  16.14999962  53.50000000
C    14.19999981  15.77000046  54.72000122
C    12.79999924  15.80999947  54.78000259
C    22.90999985  14.55999947  53.94000244
H    23.25219536  14.93711472  54.90373611
H    18.27000046  14.55000019  56.13999939
H    17.14999962  16.52000046  51.66999817
H    19.55000114  16.31000137  51.03000259
H    21.87999916  15.50000000  51.59000015
H    20.52999878  14.57999992  55.56000137
H    12.23999977  15.59999943  55.68999863
H    23.54000092  14.80999947  53.08000183
H    23.00000000  13.45999908  53.95000076
