96

S    12.20000076  17.25000000  44.33000183
C     9.57999992  17.60000038  45.04000092
C    10.78999996  17.06999969  45.34000015
C    11.07999992  16.40999985  46.59000015
C    10.06000042  16.18999863  47.49000168
C     8.71999931  16.72000122  47.19999695
C     7.63000011  16.61999893  48.20000076
C     6.44999981  17.22999954  47.97000122
C     6.21999979  17.92000008  46.65000153
C     7.21000004  17.97999954  45.72999954
C     8.50000000  17.47999954  46.03000259
C    12.50000000  16.10999870  46.73999786
C    13.20000076  16.54000092  45.61000061
C    14.57999992  16.40999985  45.48999786
C     4.79999971  18.37000084  46.23000336
H     4.51648188  17.74072838  45.38636017
H     9.40999985  18.32999992  44.25000000
H    10.11000061  15.52000046  48.34000015
H     7.90000010  16.11999893  49.13000107
H     5.59000015  17.19000053  48.62999725
H     6.98999977  18.48999977  44.79000092
H    15.13000011  16.67000008  44.59000015
H     4.05000019  18.35000038  47.02999878
H     4.88000011  19.42000008  45.93000031
S    15.65999985  15.07999992  48.95999908
C    18.35000038  14.70000076  48.40000153
C    17.06999969  15.08999920  48.01000214
C    16.72999954  15.64000034  46.70999908
C    17.79999924  15.92000008  45.84999847
C    19.04000092  15.40999985  46.11999893
C    20.03999901  15.51000023  45.13000107
C    21.28999901  15.08999920  45.48999786
C    21.63000107  14.57999992  46.73999786
C    20.69999886  14.52999973  47.70000076
C    19.36000061  14.82999992  47.43999863
C    15.26000023  15.88000107  46.55000305
C    14.53999996  15.57000065  47.70000076
C    13.15999985  15.57000065  47.81999969
C    23.06999969  14.34999943  47.09999847
H    23.28748703  14.77772713  48.07869720
H    18.53999901  14.23999977  49.36999893
H    17.57999992  16.48999977  44.94999695
H    19.75000000  16.03999901  44.22999954
H    22.06999969  15.11000061  44.72999954
H    21.00000000  14.28999996  48.72000122
H    12.69000053  15.31999969  48.76999664
H    23.68000031  14.82999992  46.32999802
H    23.21000099  13.26000023  47.15000153
S    11.54999924  16.75000000  50.79000092
C     8.97000027  17.40999985  51.46999741
C    10.18000031  16.87000084  51.86000061
C    10.52999973  16.46999931  53.20999908
C     9.52000046  16.51000023  54.16999817
C     8.21000004  16.87999916  53.82999802
C     7.16000032  16.68000031  54.66999817
C     5.88999987  16.97000122  54.29000092
C     5.64000034  17.68000031  53.13999939
C     6.65000010  17.94000053  52.27000427
C     7.92999983  17.38999939  52.49000168
C    11.95000076  16.27000046  53.34999847
C    12.69000053  16.48999977  52.12999725
C    14.04999924  16.50000000  52.08000183
C     4.19000006  18.01000023  52.83000183
H     3.88207817  17.61409950  51.86224747
H     8.80000019  17.94999886  50.54000092
H     9.61999989  16.13999939  55.18000031
H     7.36000013  16.21000099  55.63000107
H     5.18000031  16.88999939  55.11000061
H     6.48999977  18.40999985  51.31000137
H    14.52000046  16.63999939  51.11000061
H     3.44000006  17.70000076  53.56999969
H     4.11000013  19.10000038  52.81999969
S    15.15999985  15.76000023  55.84999847
C    17.90999985  15.44000053  55.12000275
C    16.64999962  15.82999992  54.78000259
C    16.28000069  16.17000008  53.40999985
C    17.30999947  16.31999969  52.51999664
C    18.59000015  15.85000038  52.83000183
C    19.69000053  15.92000008  51.95000076
C    20.94000053  15.46000004  52.25999832
C    21.11999893  14.85999966  53.50999832
C    20.09000015  14.70999908  54.36999893
C    18.85000038  15.32999992  54.15999985
C    14.78999996  16.28000069  53.25000000
C    14.09999943  16.09000015  54.47000122
C    12.69000053  15.97000027  54.52000046
C    22.56000137  14.39000034  53.90999603
H    22.93036270  14.96035767  54.76183319
H    18.05999947  15.14999962  56.16000366
H    17.09000015  16.65999985  51.51000214
H    19.52000046  16.44000053  51.00999832
H    21.84999847  15.67000008  51.70000076
H    20.39999962  14.32000065  55.34000015
H    12.18000031  15.65000057  55.43000031
H    23.22000122  14.52000046  53.04999924
H    22.46999931  13.34000015  54.19000244
