96

S    12.11999989  16.81999969  44.26000214
C     9.48999977  17.45000076  44.97000122
C    10.73999977  16.97000122  45.35999680
C    11.00999928  16.68000031  46.73999786
C     9.94999981  16.59000015  47.67000198
C     8.59000015  17.01000023  47.21000290
C     7.44999981  16.86000061  48.02999878
C     6.25000000  17.38999939  47.63000107
C     6.07999992  17.97000122  46.31999969
C     7.11999989  17.97000122  45.38000107
C     8.38000011  17.38000107  45.83000183
C    12.48000050  16.53000069  46.93000031
C    13.21000004  16.54999924  45.68000031
C    14.60999966  16.54999924  45.66999817
C     4.65000010  18.19000053  45.87999725
H     4.38099861  17.43254852  45.14378738
H     9.44000053  18.02000046  44.05000305
H    10.11999989  16.10000038  48.62999725
H     7.51999950  16.21999931  48.90999603
H     5.42000008  17.19000053  48.29000092
H     7.07000017  18.30999947  44.34999847
H    15.21999931  16.77999878  44.79999924
H     3.88999987  18.22999954  46.65999985
H     4.69000006  19.22999954  45.51000214
S    15.67999935  15.72000027  49.36999893
C    18.27999878  15.07999992  48.54000092
C    17.07999992  15.52999973  48.22000122
C    16.73999977  16.06999969  46.97999954
C    17.72999954  16.15999985  46.04999924
C    18.96000099  15.76000023  46.33999634
C    20.00999832  15.86999989  45.35999680
C    21.25999832  15.36999893  45.59000015
C    21.53000069  14.70999908  46.83000183
C    20.63999939  14.78000069  47.84999847
C    19.29999924  15.22999954  47.61000061
C    15.26999950  16.28999901  46.88000107
C    14.56999969  16.15999985  48.09000015
C    13.15000057  16.28999901  48.11000061
C    22.92000008  14.32000065  47.23999786
H    23.36061859  14.96027565  48.00419998
H    18.42000008  14.68000031  49.54000092
H    17.61000061  16.76000023  45.15999603
H    19.78000069  16.14999962  44.34000015
H    22.04999924  15.47999954  44.85000229
H    20.89999962  14.40000057  48.82999802
H    12.48999977  16.02000046  48.93000031
H    23.54000092  14.28999996  46.33999634
H    22.79000092  13.26000023  47.48000336
S    16.31000137  12.82999992  52.27000427
C    18.86999893  12.28999996  51.49000168
C    17.56999969  12.31999969  51.18000031
C    17.06999969  11.96000004  49.87999725
C    17.98999977  11.49000072  48.88999939
C    19.42000008  11.52999973  49.19000244
C    20.29999924  11.00000000  48.22999954
C    21.61999893  10.84000015  48.61999893
C    22.06999969  11.21999931  49.92000198
C    21.15999985  11.76000023  50.79999924
C    19.84000015  11.84999943  50.52000046
C    15.70000076  12.20999908  49.75000000
C    15.15999985  12.71000004  50.90999985
C    13.89000034  13.15999985  51.04000092
C    23.51000023  10.84000015  50.27000046
H    23.76383018  11.16848564  51.27785492
H    19.18000031  12.50000000  52.50999832
H    17.59000015  10.97000027  48.02000046
H    19.93000031  10.59999943  47.29999924
H    22.27999878  10.36999893  47.90999985
H    21.42000008  12.07999992  51.79999924
H    13.47000027  13.56999969  51.95000076
H    23.47999954   9.75000000  50.17000198
H    24.21999931  11.21000099  49.52000046
S    12.30000019  12.38999939  47.36999893
C     9.85999966  13.36999989  48.15999985
C    11.17000008  13.12999916  48.47000122
C    11.72999954  13.48999977  49.73999786
C    10.88999939  14.01000023  50.70999908
C     9.48000050  14.11000061  50.50000000
C     8.59000015  14.39000034  51.56000137
C     7.21000004  14.26000023  51.38000107
C     6.75000000  13.89999962  50.07999802
C     7.57000017  13.67000008  49.02999878
C     8.97000027  13.80000019  49.22000122
C    13.09999943  13.09999943  49.86999893
C    13.55000019  12.43999958  48.67000198
C    14.85999966  11.92999935  48.66000366
C     5.32999992  13.94999981  49.72000122
H     5.10841513  13.54257107  48.73359299
H     9.40999985  13.00000000  47.25000000
H    11.28000069  14.23999977  51.70000076
H     9.06000042  14.85000038  52.42000198
H     6.48000002  14.63000107  52.09999847
H     7.07000017  13.21000004  48.18000031
H    15.29999924  11.38000011  47.83000183
H     5.10999966  15.01999950  49.62999725
H     4.82999992  13.43000031  50.54999924
