96

S    12.74000072  17.01000023  44.13000107
C    10.14999962  17.51000023  44.87999725
C    11.33999920  16.98999977  45.18000031
C    11.59000015  16.42000008  46.45000076
C    10.60999966  16.26000023  47.32999802
C     9.32999992  16.72000122  47.04000092
C     8.28999996  16.54999924  47.95999908
C     6.98000002  16.95999908  47.63000107
C     6.70000029  17.60000038  46.37000275
C     7.75000000  17.73999977  45.47999954
C     9.06999969  17.35999870  45.76000214
C    13.03999996  16.18000031  46.58000183
C    13.75000000  16.39999962  45.40000153
C    15.18000031  16.36999893  45.34999847
C     5.33999968  18.18000031  46.04999924
H     4.87383080  17.77120590  45.15351868
H     9.96000004  18.07999992  43.96999741
H    10.77999973  15.93999958  48.34999847
H     8.59000015  16.18999863  48.93000031
H     6.11999989  16.97999954  48.27999878
H     7.59000015  18.19000053  44.50000000
H    15.73999977  16.76000023  44.51000214
H     4.69000006  18.04999924  46.91999817
H     5.42000008  19.26000023  45.91999817
S    16.06999969  15.44999981  49.15000153
C    18.76000023  15.11000061  48.41999817
C    17.50000000  15.52999973  48.06000137
C    17.18000031  15.98000050  46.70999908
C    18.22000122  16.05999947  45.79000092
C    19.51000023  15.57999992  46.11000061
C    20.62000084  15.57000065  45.27000046
C    21.86000061  15.15999985  45.68000031
C    22.03000069  14.67000008  47.01000214
C    21.00000000  14.52999973  47.85999680
C    19.76000023  15.06999969  47.43999863
C    15.76000023  16.00000000  46.56000137
C    15.03999901  15.81999969  47.77000046
C    13.69999981  15.80999947  47.77000046
C    23.35000038  14.25000000  47.45999908
H    23.65562820  14.81653404  48.33961868
H    18.95000076  14.77000046  49.43999863
H    17.95999908  16.47999954  44.81999969
H    20.43999863  15.85000038  44.22999954
H    22.73999977  15.31000042  45.06999969
H    21.14999962  14.13000011  48.86000061
H    13.12999916  15.73999977  48.68999863
H    23.98999977  14.34000015  46.58000183
H    23.38000107  13.22000027  47.84000015
S    16.07999992  12.81999969  52.34000397
C    18.78000069  12.31999969  51.65999985
C    17.46000099  12.34000015  51.32999802
C    17.05999947  12.15000057  49.97000122
C    17.94999886  11.68000031  49.01000214
C    19.29999924  11.56000042  49.36999893
C    20.25000000  11.09000015  48.43000031
C    21.54999924  10.84000015  48.76999664
C    22.00000000  11.28000069  50.06000137
C    21.11999893  11.79999924  50.93999863
C    19.73999977  11.87999916  50.70000076
C    15.67000008  12.39999962  49.69999695
C    15.06999969  12.82999992  50.89000320
C    13.68000031  13.09000015  50.93000031
C    23.45999908  11.00999928  50.47999954
H    23.76055527  11.33917713  51.47468948
H    19.19000053  12.48999977  52.64999771
H    17.69000053  11.56999969  47.95999908
H    19.90999985  10.85999966  47.43000031
H    22.20999908  10.42000008  48.02000046
H    21.53000069  12.18000031  51.86999893
H    13.26000023  13.40999985  51.88000107
H    23.55999947   9.92000008  50.40999985
H    24.23000145  11.35000038  49.78000259
S    12.46000099  12.34000015  47.23999786
C     9.75000000  12.89999962  47.88999939
C    11.10000038  12.86000061  48.25000000
C    11.56000042  13.21000004  49.56999969
C    10.65000057  13.53999996  50.52000046
C     9.30999947  13.57999992  50.24000168
C     8.42000008  14.13000011  51.12999725
C     7.03999996  14.14999962  50.93999863
C     6.57999992  13.94999981  49.61999893
C     7.46000004  13.60999966  48.62999725
C     8.78999996  13.30000019  48.90999603
C    12.97000027  12.94999981  49.75000000
C    13.56999969  12.43000031  48.55999756
C    14.89999962  12.15999985  48.52000427
C     5.05000019  14.06000042  49.40000153
H     4.72354031  13.83289719  48.38513947
H     9.50000000  12.64999962  46.86000061
H    11.00999928  13.76999950  51.52000046
H     8.84000015  14.60999966  52.01000214
H     6.32000017  14.56999969  51.63999939
H     7.07000017  13.22000027  47.69000244
H    15.32999992  11.64000034  47.65999603
H     4.94000006  15.11999989  49.68000031
H     4.51000023  13.53999996  50.20000076
