96

S    12.06999969  16.79000092  44.16999817
C     9.42000008  17.19000053  44.94999695
C    10.65000057  16.75000000  45.22999573
C    10.88999939  16.20000076  46.52999878
C     9.86999989  16.10000038  47.47000122
C     8.60000038  16.79000092  47.22000122
C     7.48000050  16.72999954  48.11000061
C     6.30999994  17.17000008  47.67000198
C     6.06999969  17.61000061  46.38999939
C     7.09999990  17.77000046  45.47999954
C     8.38000011  17.29999924  45.87999725
C    12.31999969  16.07999992  46.68000031
C    13.02999973  16.39000130  45.52000046
C    14.42000008  16.34000015  45.45000076
C     4.61000013  17.82999992  45.96000290
H     4.34929609  17.20290184  45.10742950
H     9.22999954  17.48999977  43.92000198
H    10.01999950  15.72999954  48.47999954
H     7.55999994  16.07999992  48.96999741
H     5.44000053  16.97999954  48.29000092
H     6.84000015  18.07999992  44.47000122
H    14.93000031  16.31000137  44.48999786
H     4.01999998  17.56000137  46.84999847
H     4.59000015  18.90999985  45.79999924
S    15.60999966  15.22999954  49.18000031
C    18.26000023  15.11000061  48.44999695
C    16.92000008  15.31000042  48.06999969
C    16.55999947  15.72999954  46.72000122
C    17.59000015  15.78999996  45.81999969
C    18.96000099  15.52999973  46.24000168
C    20.05000114  15.48999977  45.35999680
C    21.31999969  15.22999954  45.73999786
C    21.70000076  14.92000008  47.06999969
C    20.65999985  14.84000015  47.94000244
C    19.29000092  15.19999981  47.55000305
C    15.14000034  15.93000031  46.60999680
C    14.48999977  15.69000053  47.85999680
C    13.10999966  15.67999935  47.84999847
C    23.02999878  14.29999924  47.43999863
H    23.44299889  14.52786160  48.42265320
H    18.38000107  14.75999928  49.47000122
H    17.35000038  15.93999958  44.77000427
H    19.78999901  15.50000000  44.31000137
H    22.09000015  15.03999901  45.00000000
H    20.81999969  14.32999992  48.88999939
H    12.63000011  15.11000061  48.64999771
H    23.68000031  14.75999928  46.69000244
H    23.19999886  13.22000027  47.29999924
S    11.72999954  16.80999947  50.66999817
C     9.07999992  17.27000046  51.27999878
C    10.27999973  16.84999847  51.65999985
C    10.53999996  16.40999985  53.04999924
C     9.52999973  16.52000046  53.97999573
C     8.30000019  17.07999992  53.54999924
C     7.17999983  16.98999977  54.43999863
C     5.92000008  17.43999863  54.09999847
C     5.65999985  17.94999886  52.80000305
C     6.65000010  17.81999969  51.81000137
C     7.99000025  17.38000107  52.15999985
C    11.95000076  16.04999924  53.20000076
C    12.71000004  16.25000000  51.98999786
C    14.06000042  16.29999924  52.01000214
C     4.30999994  18.38000107  52.43999863
H     3.92266178  17.70960617  51.67276764
H     8.89000034  17.63000107  50.27000046
H     9.64999962  16.23999977  55.01999664
H     7.23999977  16.44000053  55.38000107
H     5.05000019  17.31999969  54.72999954
H     6.44000006  18.18000031  50.80999756
H    14.63999939  16.65999985  51.16000366
H     3.65000010  18.42000008  53.30999756
H     4.34999990  19.40999985  52.04000092
S    15.03999901  15.71000004  55.68000031
C    17.73999977  15.01000023  54.97000122
C    16.46000099  15.44999981  54.66999817
C    16.18999863  15.88000107  53.33000183
C    17.23999977  15.98000050  52.43000031
C    18.53999901  15.47000027  52.72999573
C    19.63999939  15.60999966  51.86000061
C    20.88999939  15.47999954  52.29999924
C    21.19999886  15.11000061  53.60000229
C    20.12000084  14.88999939  54.52999878
C    18.78999901  15.03999901  54.06000137
C    14.72000027  15.97000027  53.16999817
C    13.94999981  15.90999985  54.38000107
C    12.56999969  15.95999908  54.41999817
C    22.63999939  14.75000000  53.89999771
H    22.94880295  15.08687496  54.88957214
H    17.87999916  14.57999992  55.96000290
H    17.05000114  16.38000107  51.44000244
H    19.42000008  16.01000023  50.86999893
H    21.75000000  15.62999916  51.65999985
H    20.35000038  14.65999985  55.56999969
H    12.06999969  15.93999958  55.38000107
H    23.36000061  15.22999954  53.22999954
H    22.75000000  13.66000080  53.90999603
