96

S    12.23000050  16.61999893  44.15000153
C     9.55999947  16.82999992  44.85000229
C    10.78999996  16.35000038  45.14999771
C    11.16000080  15.90000057  46.46999741
C    10.22999954  15.97000027  47.48000336
C     8.94999981  16.45000076  47.15999985
C     7.86000013  16.57999992  48.13999939
C     6.65000010  17.18000031  47.83000183
C     6.40999985  17.38000107  46.52000046
C     7.35000038  17.22999954  45.58000183
C     8.63000011  16.82999992  45.86999893
C    12.60000038  15.77999973  46.70999908
C    13.30000019  16.21999931  45.56000137
C    14.65000057  16.26000023  45.48999786
C     5.00000000  17.80999947  46.17000198
H     4.52533627  17.23902702  45.37201309
H     9.19999981  17.07999992  43.85000229
H    10.50000000  15.64000034  48.47999954
H     8.00000000  16.26000023  49.16999817
H     5.84999990  17.40999985  48.54000092
H     7.09999990  17.52000046  44.55999756
H    15.14999962  16.36000061  44.52999878
H     4.36999989  17.64000130  47.05999756
H     5.00999975  18.89000130  45.97000122
S    15.65000057  15.31000042  49.19000244
C    18.38000107  14.96999931  48.48999786
C    17.09000015  15.34999943  48.11999893
C    16.79999924  15.86999989  46.81999969
C    17.79999924  15.92000008  45.87999725
C    19.13999939  15.39999962  46.14999771
C    20.06999969  15.11999989  45.13999939
C    21.35000038  14.73999977  45.50000000
C    21.61000061  14.45000076  46.90000153
C    20.69000053  14.47000027  47.87000275
C    19.38999939  14.98000050  47.52999878
C    15.36999893  16.04999924  46.65000153
C    14.60000038  15.65000057  47.80000305
C    13.28999996  15.59999943  47.88000107
C    23.05999947  14.07999992  47.11999893
H    23.35928917  14.60897541  48.02482605
H    18.63000107  14.53999996  49.45000076
H    17.61999893  16.03999901  44.80999756
H    19.77000046  15.47000027  44.15999985
H    22.15999985  14.77000046  44.78000259
H    20.98999977  14.07999992  48.83999634
H    12.77999973  15.32999992  48.81000137
H    23.64000130  14.51000023  46.30000305
H    23.00000000  12.97999954  47.14000320
S    11.73999977  16.87999916  51.11000061
C     9.04999924  17.22999954  51.70000076
C    10.31000042  17.02999878  52.14000320
C    10.65999985  16.94000053  53.50000000
C     9.61000061  16.97000122  54.41999817
C     8.26000023  17.02999878  54.06000137
C     7.17999983  17.17000008  55.01999664
C     5.92999983  17.64000130  54.61999893
C     5.71000004  17.94999886  53.20999908
C     6.71000004  17.71999931  52.29999924
C     8.01999950  17.23999977  52.65999603
C    12.03999996  16.64999962  53.69999695
C    12.75000000  16.81999969  52.51999664
C    14.13000011  16.62999916  52.41000366
C     4.30000019  18.34000015  52.71999741
H     3.90114760  17.67049789  51.95790863
H     8.82999992  17.61999893  50.70999908
H     9.96000004  17.09000015  55.44000244
H     7.40999985  17.02000046  56.06999969
H     5.12000036  17.67000008  55.33000183
H     6.58999968  17.84000015  51.23000336
H    14.63000107  16.90000153  51.47999573
H     3.60000014  18.32999992  53.56999969
H     4.28999996  19.34999847  52.29999924
S    15.11000061  15.78999996  56.14999771
C    17.88999939  15.72000027  55.45999908
C    16.55999947  15.98000050  55.12000275
C    16.22999954  16.27000046  53.76999664
C    17.30999947  16.28999901  52.85999680
C    18.64999962  15.98000050  53.22999954
C    19.55999947  15.86999989  52.16999817
C    20.81000137  15.44000053  52.51999664
C    21.18000031  15.26999950  53.85000229
C    20.26000023  15.29999924  54.85000229
C    18.96999931  15.73999977  54.59000015
C    14.80999947  16.23999977  53.57999802
C    14.02999973  16.04999924  54.75999832
C    12.68000031  16.13999939  54.81999969
C    22.60999870  14.82999992  54.15000153
H    22.98081398  15.20081425  55.10556030
H    18.04999924  15.40999985  56.49000168
H    17.15999985  16.47999954  51.79999924
H    19.13999939  16.05999947  51.18999863
H    21.47999954  15.22999954  51.70000076
H    20.48000145  14.86999989  55.81999969
H    12.15999985  15.93999958  55.76000214
H    23.29000092  15.15999985  53.34999847
H    22.65999985  13.73000050  54.19000244
