96

S    11.90000057  17.09000015  44.09000015
C     9.23999977  17.52000046  44.75000000
C    10.47000027  17.13999939  45.15999603
C    10.77999973  16.77000046  46.52000046
C     9.78999996  16.72999954  47.45999908
C     8.45000076  16.95000076  47.01000214
C     7.39000034  16.93000031  47.88999939
C     6.12999964  17.38999939  47.54000092
C     5.86000013  17.86000061  46.18999863
C     6.84000015  17.72999954  45.21999741
C     8.17000008  17.34000015  45.66999817
C    12.23999977  16.61000061  46.70999908
C    12.96000004  16.73999977  45.51000214
C    14.34999943  16.84999847  45.41999817
C     4.50000000  18.56999969  45.91999817
H     4.06782579  17.98904419  45.10524750
H     9.01000023  17.82999992  43.74000168
H    10.06999969  16.54999924  48.48999786
H     7.57000017  16.65999985  48.93000031
H     5.47999954  17.71000099  48.34999847
H     6.76000023  18.18000031  44.23999786
H    14.81999969  17.12000084  44.47999954
H     3.94000006  18.35000038  46.84000015
H     4.56999969  19.67000008  45.84999847
S    15.44000053  15.84000015  49.10999680
C    18.05999947  15.53999996  48.31999969
C    16.84000015  15.98999977  48.09999847
C    16.47999954  16.40999985  46.77999878
C    17.50000000  16.53000069  45.79000092
C    18.81999969  16.14999962  46.10000229
C    19.88000107  16.44000053  45.20999908
C    21.18999863  16.11999893  45.47999954
C    21.47999954  15.47999954  46.75000000
C    20.48000145  15.19000053  47.64999771
C    19.10000038  15.60999966  47.37999725
C    15.07999992  16.55999947  46.58000183
C    14.35999966  16.31999969  47.76000214
C    13.00000000  16.46999931  47.87000275
C    22.86000061  15.07999992  47.02000046
H    23.16471291  15.35008621  48.03108978
H    18.19000053  15.08999920  49.29999924
H    17.15999985  16.84000015  44.80999756
H    19.60000038  16.88999939  44.26000214
H    21.97999954  16.31999969  44.75999832
H    20.85000038  14.77000046  48.56999969
H    12.61999989  16.50000000  48.88000107
H    23.44000053  15.62999916  46.26999664
H    22.96999931  13.99000072  46.86999893
S    15.77999973  13.52000046  52.15999985
C    18.38000107  12.69999981  51.40999603
C    17.00000000  12.75000000  51.18000031
C    16.51000023  12.30999947  49.88999939
C    17.46000099  11.85999966  48.94000244
C    18.82999992  11.82000065  49.09999847
C    19.80999947  11.28999901  48.22999954
C    21.18999863  11.23999977  48.54000092
C    21.61999893  11.82999992  49.71000290
C    20.71000099  12.50000000  50.52999878
C    19.27999878  12.35000038  50.37000275
C    15.15999985  12.76000023  49.61999893
C    14.65000057  13.38000107  50.84999847
C    13.32999992  13.78999901  50.93999863
C    22.98000145  11.36999989  50.19000244
H    23.18988800  11.66384220  51.21844864
H    18.92000008  13.12999916  52.25000000
H    17.05000114  11.59000015  47.97000122
H    19.55000114  10.80999947  47.29000092
H    21.94999886  10.57999992  48.13999939
H    21.09999847  12.71999931  51.52000046
H    12.94000053  14.11000061  51.90000153
H    23.00000000  10.27999973  50.07999802
H    23.75999832  11.79999924  49.54000092
S    11.82000065  12.56999969  47.43999863
C     9.18000031  12.84000015  48.27000046
C    10.52000046  13.02999973  48.54999924
C    11.00000000  13.60999966  49.75999832
C    10.10000038  13.86000061  50.80999756
C     8.69999981  13.85000038  50.61000061
C     7.78999996  14.46000004  51.52000046
C     6.47000027  14.55000019  51.14999771
C     6.02999973  14.06999969  49.81999969
C     6.90999985  13.45999908  48.95999908
C     8.30000019  13.31999969  49.27000046
C    12.43999958  13.61999989  49.84000397
C    13.03999996  13.05999947  48.70999908
C    14.34999943  12.57999992  48.54000092
C     4.67000008  14.50000000  49.33000183
H     4.38855791  14.04008198  48.38270950
H     8.82000065  12.39999962  47.34000397
H    10.44000053  14.15999985  51.79999924
H     8.05999947  14.75000000  52.52999878
H     5.77000046  15.01999950  51.83000183
H     6.65000010  13.22000027  47.93000031
H    14.57999992  11.79999924  47.81999969
H     4.69999981  15.59999943  49.34000015
H     3.96000004  14.25000000  50.13000107
