96

S    12.43999958  16.86000061  44.27000046
C     9.77000046  17.13999939  44.84000397
C    11.00000000  16.81999969  45.31999969
C    11.26999950  16.35000038  46.63999939
C    10.19999981  16.20000076  47.51999664
C     8.89999962  16.62999916  47.04999924
C     7.77999973  16.54000092  47.88000107
C     6.51999998  17.04000092  47.61000061
C     6.34999990  17.53999901  46.25000000
C     7.40999985  17.53999901  45.31999969
C     8.67999935  17.11000061  45.70999908
C    12.69000053  16.04999924  46.77999878
C    13.43999958  16.47999954  45.65999985
C    14.82999992  16.48999977  45.61999893
C     5.05000019  18.15000153  45.84999847
H     4.66634703  17.66500473  44.95239639
H     9.73999977  17.64999962  43.88000107
H    10.38000011  15.78999996  48.50999832
H     7.86999989  16.03999901  48.83999634
H     5.71000004  17.07999992  48.33000183
H     7.36999989  17.90999985  44.29999924
H    15.31000042  16.79999924  44.69999695
H     4.42999983  17.98999977  46.73999786
H     5.05000019  19.25000000  45.81999969
S    15.85000038  15.24000072  49.22000122
C    18.60999870  15.10000038  48.46000290
C    17.31999969  15.48999977  48.16999817
C    17.02999878  16.07999992  46.95000076
C    18.01000023  16.27000046  45.97999954
C    19.34000015  15.78999996  46.22000122
C    20.42000008  15.82999992  45.31000137
C    21.73000145  15.43000031  45.61999893
C    21.94999886  14.75000000  46.86999893
C    20.92000008  14.60999966  47.77000046
C    19.61000061  15.19000053  47.47000122
C    15.55999947  16.10999870  46.72999954
C    14.75999928  15.65000057  47.88000107
C    13.40000057  15.62999916  47.94000244
C    23.34000015  14.29999924  47.25000000
H    23.69064331  14.74181175  48.18271255
H    18.76000023  14.65000057  49.43999863
H    17.69000053  16.69999886  45.04000092
H    20.17000008  16.18000031  44.31000137
H    22.57999802  15.62000084  44.97000122
H    21.11000061  14.09999943  48.69999695
H    12.96000004  15.36000061  48.88999939
H    24.04000092  14.50000000  46.43000031
H    23.29000092  13.22000027  47.39999771
S    12.17000008  17.29999924  50.93999863
C     9.50000000  17.56000137  51.50000000
C    10.70000076  17.09000015  51.88999939
C    10.93999958  16.54999924  53.16999817
C     9.86999989  16.57999992  54.10999680
C     8.61999989  17.06999969  53.76999664
C     7.50000000  17.14999962  54.68999863
C     6.23000050  17.48999977  54.20000076
C     6.07999992  17.97000122  52.84000015
C     7.13000011  17.97000122  52.04999924
C     8.40999985  17.51000023  52.41000366
C    12.34000015  16.27000046  53.36000061
C    13.15000057  16.72000122  52.27000427
C    14.47999954  16.54999924  52.22000122
C     4.69999981  18.39999962  52.30999756
H     4.37299204  17.70965004  51.53244781
H     9.48999977  18.05999947  50.52999878
H    10.06000042  16.07999992  55.06000137
H     7.79999971  16.82999992  55.68000031
H     5.38000011  17.35000038  54.86000061
H     6.98999977  18.32999992  51.03000259
H    15.06000042  16.90000153  51.37000275
H     4.01999998  18.34000015  53.16999817
H     4.71000004  19.40999985  51.88999939
S    15.32999992  15.34000015  55.93000031
C    18.05999947  15.07999992  55.24000168
C    16.79999924  15.38000011  54.88999939
C    16.43000031  15.77999973  53.56999969
C    17.46000099  15.86999989  52.64999771
C    18.77000046  15.57000065  52.98999786
C    19.79999924  15.59999943  52.02999878
C    21.04000092  15.15999985  52.28000259
C    21.38999939  14.70999908  53.60000229
C    20.46999931  14.81999969  54.58000183
C    19.11999893  15.29000092  54.27999878
C    15.03999901  16.01000023  53.36000061
C    14.30999947  15.70000076  54.52000046
C    12.90999985  15.71000004  54.54999924
C    22.81999969  14.30999947  54.01000214
H    23.09074783  14.69474792  54.99324417
H    18.26000023  14.46000004  56.11000061
H    17.20999908  16.03999901  51.60999680
H    19.44000053  16.02000046  51.10000229
H    21.80999947  15.39999962  51.55000305
H    20.72999954  14.63000107  55.61999893
H    12.28999996  15.54999924  55.43000031
H    23.52999878  14.73999977  53.29000092
H    22.86000061  13.21000004  53.99000168
