96

S    12.34000015  16.70999908  44.27000046
C     9.68999958  17.32999992  44.89999771
C    10.88999939  16.79999924  45.24000168
C    11.23000050  16.29999924  46.58000183
C    10.18000031  16.07999992  47.43000031
C     8.82999992  16.51000023  47.05999756
C     7.78999996  16.38000107  47.95999908
C     6.54999971  16.87000084  47.62000275
C     6.34000015  17.64000130  46.45999908
C     7.39000034  17.79999924  45.59999847
C     8.63000011  17.20000076  45.84000015
C    12.63000011  16.18000031  46.81999969
C    13.35000038  16.54999924  45.63999939
C    14.70999908  16.61000061  45.65000153
C     4.92000008  17.88999939  45.98999786
H     4.67153740  17.48076820  45.01076508
H     9.61000061  17.90999985  43.99000168
H    10.36999893  15.77000046  48.46000290
H     7.97999954  15.88999939  48.92000198
H     5.69000006  16.59000015  48.22000122
H     7.30999994  18.12000084  44.56999969
H    15.34000015  16.81999969  44.79000092
H     4.23999977  17.59000015  46.79000092
H     4.76000023  18.96000099  45.79000092
S    15.76000023  15.40999985  49.25000000
C    18.43000031  15.40999985  48.54999924
C    17.18000031  15.72000027  48.20999908
C    16.90000153  16.25000000  46.95000076
C    17.86000061  16.39000130  46.04999924
C    19.15999985  15.84000015  46.25999832
C    20.17000008  15.73999977  45.28999710
C    21.42999840  15.36000061  45.65000153
C    21.68000031  14.98999977  46.97000122
C    20.79000092  15.07999992  47.97999954
C    19.50000000  15.52000046  47.60000229
C    15.39999962  16.36000061  46.77999878
C    14.72000027  15.97000027  47.94000244
C    13.30999947  15.93000031  47.95000076
C    23.02000046  14.50000000  47.36999893
H    23.39214325  15.18915558  48.12807083
H    18.57999992  15.11999989  49.59000015
H    17.64000130  16.69999886  45.02999878
H    19.84000015  16.03999901  44.29999924
H    22.29000092  15.47000027  45.00000000
H    20.95000076  14.82999992  49.02000046
H    12.79000092  15.57999992  48.83999634
H    23.75000000  14.55000019  46.55000305
H    22.88000107  13.47000027  47.70999908
S    15.77000046  12.48000050  52.25000000
C    18.36000061  12.20999908  51.43000031
C    17.02999878  12.25000000  51.12999725
C    16.63999939  11.90999985  49.79999924
C    17.48999977  11.63000011  48.79000092
C    18.86000061  11.56000042  49.06000137
C    19.81999969  11.09000015  48.15000153
C    21.14000130  10.98999977  48.47000122
C    21.64999962  11.39000034  49.78000259
C    20.69000053  11.84000015  50.66999817
C    19.29999924  11.98999977  50.37000275
C    15.21000004  12.09000015  49.61000061
C    14.60000038  12.46999931  50.86999893
C    13.26000023  12.76999950  51.00000000
C    23.09000015  11.03000069  50.13999939
H    23.37310982  11.55375576  51.05303192
H    18.77000046  12.41000080  52.41000366
H    17.11000061  11.44000053  47.78999710
H    19.52000046  10.80000019  47.15000153
H    21.80999947  10.59999943  47.70999908
H    21.04000092  11.98999977  51.69000244
H    12.97000027  13.22999954  51.93999863
H    23.21000099   9.94000053  50.19000244
H    23.71000099  11.32999992  49.27999878
S    11.85999966  12.23000050  47.25999832
C     9.26000023  12.76999950  48.09999847
C    10.59000015  12.74000072  48.37999725
C    11.03000069  12.88000011  49.72999954
C    10.17000008  13.12000084  50.79999924
C     8.78999996  13.35000038  50.45000076
C     7.83999968  13.96000004  51.32999802
C     6.50000000  14.18000031  51.00000000
C     6.03999996  13.83999920  49.68999863
C     6.94000006  13.35999966  48.75000000
C     8.36000061  13.10999966  49.10999680
C    12.46999931  12.58999920  49.80999756
C    13.02000046  12.20000076  48.56999969
C    14.37999916  11.97999954  48.47000122
C     4.59999990  14.19000053  49.31999969
H     4.39644718  13.96463776  48.27315903
H     8.82000065  12.38000011  47.18999863
H    10.59000015  13.22000027  51.79999924
H     8.14000034  14.18000031  52.35000229
H     5.80999947  14.67000008  51.68000031
H     6.63000011  13.25000000  47.71999741
H    14.73000050  11.76000023  47.45999908
H     4.50000000  15.26999950  49.48999786
H     3.86000013  13.71999931  49.98000336
