96

S    12.15000057  17.02999878  44.10999680
C     9.44999981  17.26000023  44.79999924
C    10.64000034  16.82999992  45.18000031
C    10.90999985  16.35000038  46.52000046
C     9.96999931  16.13000107  47.49000168
C     8.64000034  16.57999992  47.08000183
C     7.55999994  16.64999962  47.97999954
C     6.39999962  17.15999985  47.65999603
C     6.12999964  17.54999924  46.35000229
C     7.14999962  17.60000038  45.40000153
C     8.43000031  17.13999939  45.75000000
C    12.35000038  16.20000076  46.62000275
C    13.15999985  16.46000099  45.48999786
C    14.53999996  16.53000069  45.38999939
C     4.76999998  18.02999878  45.97999954
H     4.53664970  17.71886635  44.96174240
H     9.22000027  17.64999962  43.81000137
H    10.05000019  15.86999989  48.54000092
H     7.73000002  16.27000046  48.97999573
H     5.52999973  17.13000107  48.31999969
H     7.04999971  17.94999886  44.38000107
H    14.96000099  16.86000061  44.43999863
H     4.03999996  17.50000000  46.59999847
H     4.63999987  19.10000038  46.22000122
S    15.59000015  15.75000000  49.05000305
C    18.09999847  15.24000072  48.34000015
C    16.95000076  15.77000046  47.98999786
C    16.62999916  16.17000008  46.66999817
C    17.61000061  16.21999931  45.72000122
C    18.86999893  15.72000027  46.04999924
C    19.96999931  15.72999954  45.17000198
C    21.22999954  15.18000031  45.48999786
C    21.40999985  14.55999947  46.77000046
C    20.36999893  14.56999969  47.68000031
C    19.10000038  15.15999985  47.38999939
C    15.26000023  16.32999992  46.53999710
C    14.50000000  16.11999893  47.71999741
C    13.09000015  15.97000027  47.77999878
C    22.84000015  14.21000004  47.25999832
H    23.05384827  14.57354259  48.26508713
H    18.19000053  14.82999992  49.34999847
H    17.30999947  16.51000023  44.72000122
H    19.82999992  16.14999962  44.18000031
H    22.13000107  15.34000015  44.91000366
H    20.62000084  14.19000053  48.67000198
H    12.56999969  15.71000004  48.68999863
H    23.31999969  14.85999966  46.51000214
H    23.06999969  13.15000057  47.15000153
S    15.80000019  12.81000042  52.18999863
C    18.52000046  12.25000000  51.52000046
C    17.18000031  12.31999969  51.17000198
C    16.67000008  11.94000053  49.82999802
C    17.61999893  11.59999943  48.92000198
C    19.00000000  11.54999924  49.13999939
C    19.93999863  11.28999901  48.11000061
C    21.27000046  11.07999992  48.47999954
C    21.68000031  11.39999962  49.77000427
C    20.82999992  11.87000084  50.72999954
C    19.44000053  11.95000076  50.47999954
C    15.21000004  12.13999939  49.72000122
C    14.63000107  12.57999992  50.90999985
C    13.35000038  13.09000015  51.04000092
C    23.15000153  11.10999966  50.13999939
H    23.41599083  11.37598896  51.16303253
H    18.82999992  12.44999981  52.54000092
H    17.28000069  11.51000023  47.88999939
H    19.60000038  11.18000031  47.08000183
H    22.09000015  10.90000057  47.77999878
H    21.07000160  12.03999996  51.77999878
H    13.02999973  13.56999969  51.95999908
H    23.43000031  10.06999969  49.93000031
H    23.84000015  11.56999969  49.41999817
S    11.96000004  12.60000038  47.39999771
C     9.38000011  13.07000065  48.09000015
C    10.67999935  13.02000046  48.46000290
C    11.13999939  13.21000004  49.77000427
C    10.07999992  13.43000031  50.68000031
C     8.73000050  13.53000069  50.38000107
C     7.71000004  13.76999950  51.31999969
C     6.37000036  13.89000034  50.86999893
C     5.98999977  13.64999962  49.52000046
C     6.98000002  13.38000107  48.60000229
C     8.34000015  13.25000000  49.00000000
C    12.60000038  13.00000000  49.86999893
C    13.14000034  12.63000011  48.64999771
C    14.47999954  12.09000015  48.52000427
C     4.61000013  14.06999969  49.15000153
H     4.41412210  13.77255726  48.11982727
H     9.22999954  12.84000015  47.04000092
H    10.27999973  13.68000031  51.72000122
H     7.99000025  14.01000023  52.34000397
H     5.68000031  14.18000031  51.65999985
H     6.72999954  13.40000057  47.54000092
H    14.85000038  11.72000027  47.56999969
H     4.46999979  15.14999962  49.29999924
H     3.88999987  13.56999969  49.79999924
