96

S    11.97000027  16.97000122  44.43000031
C     9.26999950  17.14999962  45.13000107
C    10.57000065  16.87000084  45.48999786
C    10.90999985  16.46000099  46.81000137
C     9.89000034  16.26000023  47.72999573
C     8.53999996  16.64999962  47.43000031
C     7.50999975  16.59000015  48.36000061
C     6.23000050  17.06999969  48.02999878
C     5.92999983  17.53999901  46.77000046
C     6.90999985  17.57999992  45.84000015
C     8.21000004  17.02000046  46.03000259
C    12.35000038  16.31000137  47.00000000
C    13.07000065  16.57999992  45.76000214
C    14.44000053  16.45000076  45.63000107
C     4.51999998  18.13999939  46.45000076
H     4.05527782  17.61808014  45.61349869
H     9.11000061  17.47999954  44.10999680
H    10.17000008  15.77999973  48.66000366
H     7.64999962  16.02000046  49.27999878
H     5.47999954  17.02000046  48.80000305
H     6.88000011  18.29000092  45.01999664
H    15.01000023  16.75000000  44.75000000
H     3.84000015  18.06999969  47.29999924
H     4.53000021  19.20999908  46.19999695
S    15.67000008  15.39000034  49.29000092
C    18.30000114  15.26000023  48.52000427
C    17.02000046  15.47000027  48.18999863
C    16.61999893  15.90000057  46.86999893
C    17.65999985  16.21999931  46.00999832
C    19.00000000  15.84000015  46.25999832
C    20.07999802  15.88999939  45.26000214
C    21.31999969  15.38000011  45.52000046
C    21.68000031  15.01999950  46.86000061
C    20.65000153  14.93999958  47.77000046
C    19.31999969  15.25000000  47.51999664
C    15.19000053  16.07999992  46.79000092
C    14.50000000  15.76000023  47.98999786
C    13.12000084  15.82999992  48.08000183
C    23.12000084  14.60999966  47.05999756
H    23.42347145  14.94105911  48.05317688
H    18.53000069  15.03000069  49.55999756
H    17.43999863  16.64999962  45.04000092
H    19.81999969  16.28999901  44.27999878
H    22.01999855  15.27999973  44.69999695
H    20.84000015  14.86999989  48.83999634
H    12.60000038  15.47999954  48.96999741
H    23.72999954  15.06000042  46.26999664
H    23.23999786  13.53000069  46.90999985
S    15.84000015  12.88000011  52.04000092
C    18.44000053  12.27000046  51.36000061
C    17.07999992  12.28999996  51.00999832
C    16.61000061  11.97999954  49.72999954
C    17.54999924  11.61000061  48.81999969
C    18.89000130  11.44000053  49.09999847
C    19.76000023  10.88999939  48.22999954
C    21.11999893  10.80999947  48.50000000
C    21.63000107  11.31000042  49.79999924
C    20.72999954  11.84999943  50.70000076
C    19.38999939  11.97000027  50.35999680
C    15.17000008  12.03999996  49.64000320
C    14.63999939  12.61999989  50.83000183
C    13.31999969  12.89000034  51.00000000
C    23.05999947  11.21999931  50.07999802
H    23.27310944  11.55803585  51.09410477
H    18.73999977  12.51000023  52.37999725
H    17.27000046  11.46000004  47.77999878
H    19.38999939  10.51000023  47.29000092
H    21.80000114  10.46000004  47.72999573
H    20.98999977  12.34000015  51.63000107
H    12.94000053  13.27000046  51.93999863
H    23.31999969  10.15999985  49.98000336
H    23.57000160  11.82000065  49.31000137
S    11.92999935  12.09000015  47.39999771
C     9.18000031  12.57999992  48.18999863
C    10.59999943  12.63000011  48.44999695
C    11.10999966  13.02999973  49.65999985
C    10.21999931  13.40000057  50.66999817
C     8.85000038  13.48000050  50.45000076
C     7.90999985  13.89000034  51.49000168
C     6.56000042  13.85000038  51.26999664
C     6.01999998  13.48999977  49.99000168
C     6.90999985  13.07000065  49.02000046
C     8.30999947  13.04999924  49.18000031
C    12.50000000  12.74000072  49.86999893
C    13.02999973  12.23999977  48.64999771
C    14.29999924  11.73999977  48.54000092
C     4.63000011  13.89000034  49.59000015
H     4.44140577  13.48379707  48.59625244
H     8.78000069  12.18000031  47.25000000
H    10.73999977  13.64999962  51.59000015
H     8.30000019  14.09999943  52.48000336
H     5.88999987  14.15999985  52.05999756
H     6.52999973  12.89000034  48.02000046
H    14.61999989  11.36000061  47.56999969
H     4.53000021  14.98000050  49.59999847
H     3.91999984  13.50999928  50.34000015
