96

S    12.03999996  17.04000092  44.26000214
C     9.46000004  17.30999947  45.02999878
C    10.71000004  16.93000031  45.38000107
C    11.10999966  16.43000031  46.63999939
C    10.11999989  16.53000069  47.62000275
C     8.76999950  16.77000046  47.30999756
C     7.75000000  16.42000008  48.20999908
C     6.42000008  16.75000000  47.90999985
C     6.09000015  17.38000107  46.70999908
C     7.09000015  17.57999992  45.76000214
C     8.46000004  17.28999901  46.04000092
C    12.51000023  16.14999962  46.73999786
C    13.19000053  16.54999924  45.54999924
C    14.59000015  16.53000069  45.47999954
C     4.73000002  17.87999916  46.29000092
H     4.36930656  17.34249687  45.41302109
H     9.17000008  17.68000031  44.06000137
H    10.29000092  15.98999977  48.54999924
H     8.00000000  15.98999977  49.18000031
H     5.69999981  16.69999886  48.72000122
H     6.94000006  18.15999985  44.85000229
H    15.06000042  16.87000084  44.56999969
H     4.00999975  17.92000008  47.11000061
H     4.84000015  18.95000076  46.06999969
S    15.60999966  15.36000061  49.12000275
C    18.35000038  15.11000061  48.46000290
C    17.10000038  15.54999924  48.06999969
C    16.79000092  15.90999985  46.72000122
C    17.81999969  16.00000000  45.86000061
C    19.17000008  15.72999954  46.19999695
C    20.22999954  16.00000000  45.31000137
C    21.45999908  15.44999981  45.63999939
C    21.70000076  14.73999977  46.84000015
C    20.72999954  14.56999969  47.71999741
C    19.42000008  15.13000011  47.51999664
C    15.32999992  16.11999893  46.63999939
C    14.57999992  15.82999992  47.84999847
C    13.22999954  15.81999969  47.94000244
C    23.08000183  14.34000015  47.22999954
H    23.41830063  14.83617401  48.13965225
H    18.38999939  14.63999939  49.43999863
H    17.57999992  16.26000023  44.82999802
H    19.95000076  16.45000076  44.36000061
H    22.20999908  15.57000065  44.86000061
H    20.97999954  14.11000061  48.66000366
H    12.79000092  15.77000046  48.93000031
H    23.75999832  14.52999973  46.38999939
H    23.22000122  13.25000000  47.29999924
S    11.69000053  17.38999939  51.02000427
C     9.02999973  17.64000130  51.59000015
C    10.26999950  17.18000031  51.97999954
C    10.60999966  16.69000053  53.31999969
C     9.56999969  16.79999924  54.20999908
C     8.23000050  17.18000031  53.79000092
C     7.14999962  17.13000107  54.73999786
C     5.84000015  17.38000107  54.36999893
C     5.65000010  17.93000031  53.09000015
C     6.65000010  18.04000092  52.14000320
C     7.96999979  17.56999969  52.49000168
C    12.01000023  16.47999954  53.47999954
C    12.74000072  16.75000000  52.29000092
C    14.07999992  16.54999924  52.15000153
C     4.28000021  18.30999947  52.65999603
H     4.00601292  17.87018013  51.70104218
H     8.86999989  18.04000092  50.59000015
H     9.72999954  16.55999947  55.26000214
H     7.26000023  16.87999916  55.79000092
H     5.01999950  17.17000008  55.04000092
H     6.51999998  18.61999893  51.22000122
H    14.57999992  16.60000038  51.18999863
H     3.52999973  17.97999954  53.39000320
H     4.23000002  19.40000153  52.58999634
S    15.13000011  15.57000065  55.77000046
C    17.78000069  15.29000092  55.13000107
C    16.54000092  15.64000034  54.75999832
C    16.21000099  16.03000069  53.40999985
C    17.27000046  16.26000023  52.44999695
C    18.56999969  15.81999969  52.78999710
C    19.57999992  15.80000019  51.81999969
C    20.84000015  15.31000042  52.14000320
C    21.14999962  14.81999969  53.47000122
C    20.10000038  14.73999977  54.40999985
C    18.82999992  15.31000042  54.18000031
C    14.80000019  16.23999977  53.30999756
C    14.09000015  16.01000023  54.50000000
C    12.74000072  16.10999870  54.61000061
C    22.53000069  14.39000034  53.87000275
H    22.91091728  14.96137619  54.71648407
H    17.89999962  14.84000015  56.11000061
H    16.97999954  16.65999985  51.47999573
H    19.44000053  16.11999893  50.79000092
H    21.55999947  15.19000053  51.33999634
H    20.35000038  14.21000004  55.33000183
H    12.20000076  15.90999985  55.52999878
H    23.13999939  14.52000046  52.97000122
H    22.56999969  13.32999992  54.13000107
