96

S    12.51999950  16.93000031  44.25000000
C     9.94000053  17.05000114  44.95999908
C    11.18999958  16.73999977  45.38000107
C    11.56000042  16.35000038  46.73999786
C    10.54999924  16.42000008  47.70999908
C     9.19999981  16.82999992  47.36999893
C     8.14999962  16.90999985  48.33000183
C     6.84999990  17.13000107  47.94000244
C     6.46000004  17.31999969  46.63999939
C     7.50999975  17.43000031  45.68999863
C     8.89999962  17.11000061  46.00000000
C    12.94999981  16.34000015  46.86000061
C    13.60999966  16.68000031  45.61000061
C    14.98999977  16.73999977  45.51000214
C     4.94000006  17.50000000  46.29000092
H     4.75460100  17.12207222  45.28456497
H     9.68999958  17.07999992  43.89999771
H    10.77000046  16.14999962  48.74000168
H     8.38999939  16.68000031  49.36999893
H     6.11999989  17.00000000  48.74000168
H     7.23000002  17.67000008  44.66999817
H    15.40999985  16.95999908  44.52999878
H     4.35999966  16.94000053  47.04000092
H     4.61000013  18.53999901  46.35000229
S    16.22999954  15.97000027  49.18000031
C    18.86000061  15.51000023  48.41999817
C    17.63000107  15.97000027  48.09000015
C    17.25000000  16.32999992  46.79999924
C    18.23999977  16.39999962  45.83000183
C    19.55999947  16.06999969  46.13999939
C    20.61000061  16.02000046  45.19000244
C    21.86000061  15.44999981  45.43000031
C    22.13000107  15.14999962  46.77999878
C    21.19999886  15.21000004  47.74000168
C    19.88000107  15.59000015  47.49000168
C    15.80000019  16.50000000  46.63000107
C    15.11999989  16.26000023  47.87000275
C    13.80000019  16.11999893  47.93000031
C    23.59999847  14.93000031  47.12999725
H    23.81940842  15.10552692  48.18315887
H    18.96999931  14.98999977  49.36999893
H    18.00000000  16.68000031  44.80999756
H    20.36999893  16.21999931  44.15000153
H    22.67000008  15.40999985  44.71000290
H    21.47000122  14.85000038  48.72000122
H    13.42000008  15.93000031  48.93000031
H    24.34000015  15.55999947  46.62000275
H    23.82999802  13.86999989  46.95000076
S    15.85999966  13.53000069  51.97000122
C    18.43000031  12.64000034  51.26999664
C    17.12000084  12.82999992  50.94999695
C    16.69000053  12.51000023  49.64000320
C    17.64999962  12.07999992  48.67000198
C    18.97999954  11.94000053  48.97999573
C    20.00000000  11.59000015  48.01000214
C    21.34000015  11.51999950  48.29999924
C    21.70000076  11.71000004  49.66999817
C    20.79999924  12.15000057  50.63999939
C    19.40000153  12.28000069  50.31999969
C    15.29999924  12.89000034  49.45000076
C    14.70999908  13.36999989  50.63999939
C    13.36999989  13.73000050  50.66999817
C    23.09000015  11.33999920  50.11000061
H    23.47158432  11.77708626  51.03274155
H    18.71999931  13.02000046  52.23999786
H    17.36999893  12.02000046  47.62000275
H    19.67000008  11.05000019  47.11999893
H    22.01000023  11.31000042  47.48000336
H    21.15999985  12.28999996  51.65999985
H    12.86000061  14.07999992  51.56999969
H    23.22000122  10.25000000  50.11000061
H    23.77000046  11.65999985  49.31000137
S    12.10000038  12.56000042  47.02999878
C     9.38000011  12.81000042  47.97000122
C    10.72999954  12.90999985  48.15000153
C    11.13999939  13.43000031  49.40999985
C    10.31000042  13.76000023  50.41999817
C     8.90999985  13.78000069  50.20000076
C     7.96999979  14.23999977  51.18000031
C     6.61999989  14.19999981  50.90000153
C     6.17000008  13.75000000  49.65999985
C     7.05999947  13.34000015  48.69999695
C     8.46000004  13.27999973  48.94000244
C    12.58999920  13.45999908  49.51000214
C    13.19000053  12.89999962  48.36000061
C    14.53999996  12.61999989  48.27999878
C     4.65999985  13.97999954  49.25000000
H     4.44477987  13.80782413  48.19542313
H     9.09000015  12.48999977  46.97000122
H    10.72999954  14.04000092  51.38000107
H     8.34000015  14.60000038  52.14000320
H     6.00000000  14.45000076  51.75000000
H     6.74000025  13.09000015  47.69000244
H    14.96000099  12.02999973  47.45999908
H     4.23000002  14.93000031  49.59000015
H     4.17000008  13.19000053  49.82999802
