96

S    12.23000050  17.00000000  44.20000076
C     9.63000011  17.32999992  45.11000061
C    10.88999939  16.88999939  45.34000015
C    11.28999901  16.38000107  46.59999847
C    10.32999992  16.04999924  47.55000305
C     9.02999973  16.55999947  47.37999725
C     8.10000038  16.42000008  48.40000153
C     6.84000015  16.80999947  48.18000031
C     6.44999981  17.39999962  46.97000122
C     7.37999964  17.60000038  45.94999695
C     8.67999935  17.19000053  46.11000061
C    12.69000053  16.32999992  46.72000122
C    13.35000038  16.62999916  45.52000046
C    14.77000046  16.68000031  45.44000244
C     5.01999950  17.73999977  46.68000031
H     4.60631657  17.30563354  45.76989365
H     9.48000050  17.75000000  44.12000275
H    10.59999943  15.60999966  48.50999832
H     8.38000011  16.06999969  49.38999939
H     6.21000004  16.73999977  49.06000137
H     7.13000011  17.94999886  44.94999695
H    15.31999969  16.87000084  44.52000046
H     4.33999968  17.61999893  47.52999878
H     4.97000027  18.82999992  46.51000214
S    15.98999977  15.52999973  49.03999710
C    18.52000046  15.05000019  48.22000122
C    17.30999947  15.52000046  47.88000107
C    16.95000076  16.11999893  46.63999939
C    18.00000000  16.26000023  45.72000122
C    19.27000046  15.70000076  45.96000290
C    20.35000038  15.62000084  45.00000000
C    21.59000015  15.06999969  45.31999969
C    21.84000015  14.60999966  46.63000107
C    20.79000092  14.57999992  47.55000305
C    19.52000046  15.08999920  47.23999786
C    15.53999996  16.42000008  46.59000015
C    14.85000038  16.05999947  47.76000214
C    13.47000027  16.00000000  47.84000015
C    23.23999786  14.19000053  47.05999756
H    23.52471352  14.65453529  48.00405502
H    18.68999863  14.68000031  49.22000122
H    17.73999977  16.62999916  44.72999954
H    20.23999977  16.15999985  44.06999969
H    22.40999985  15.19999981  44.61999893
H    20.88999939  14.04000092  48.48999786
H    13.02000046  15.65999985  48.76999664
H    23.92999840  14.52999973  46.27999878
H    23.29000092  13.09999943  47.04000092
S    16.05999947  12.90999985  52.12999725
C    18.59000015  12.15000057  51.25999832
C    17.25000000  12.23000050  51.00000000
C    16.80999947  11.90999985  49.72999954
C    17.71000099  11.49000072  48.75999832
C    19.11999893  11.44999981  48.95999908
C    20.10000038  11.05000019  47.98999786
C    21.42000008  10.93000031  48.29000092
C    21.87999916  11.18000031  49.59999847
C    20.95999908  11.64000034  50.54999924
C    19.57999992  11.80999947  50.26000214
C    15.43000031  12.39999962  49.59999847
C    14.92000008  12.94000053  50.84999847
C    13.55999947  13.19000053  50.97999954
C    23.32999992  11.03000069  50.06999969
H    23.56964302  11.29783440  51.09904480
H    18.94000053  12.61000061  52.18000031
H    17.38999939  11.18999958  47.76000214
H    19.78999901  10.77000046  46.98999786
H    21.96000099  10.51000023  47.44999695
H    21.28999901  11.79999924  51.56999969
H    13.12000084  13.50000000  51.93000031
H    23.69999886  10.03000069  49.81999969
H    23.75000000  11.72000027  49.31999969
S    11.87999916  12.15999985  47.56999969
C     9.39000034  12.79000092  48.48999786
C    10.71000004  12.77999973  48.68000031
C    11.28000069  13.04999924  49.88999939
C    10.44000053  13.48000050  51.00000000
C     9.03999996  13.56999969  50.84000015
C     8.14999962  13.96000004  51.83000183
C     6.78999996  13.96999931  51.58000183
C     6.30000019  13.81000042  50.30000305
C     7.11999989  13.38000107  49.31999969
C     8.50000000  13.15999985  49.54999924
C    12.68000031  12.89999962  49.93000031
C    13.20000076  12.43000031  48.68999863
C    14.56999969  12.20999908  48.50000000
C     4.88000011  14.11999893  49.97000122
H     4.65037203  13.83296490  48.94385147
H     8.97000027  12.65999985  47.49000168
H    10.90000057  13.68000031  51.97000122
H     8.56999969  14.25000000  52.78999710
H     6.05000019  14.40999985  52.25000000
H     6.84000015  13.21000004  48.27999878
H    15.06000042  11.75000000  47.63999939
H     4.75000000  15.19000053  50.15999603
H     4.21000004  13.60000038  50.66999817
