96

S    12.57999992  16.86000061  44.40999985
C     9.89000034  17.23999977  45.06999969
C    11.14999962  16.76000023  45.40000153
C    11.51000023  16.27000046  46.73999786
C    10.46000004  16.22999954  47.62000275
C     9.07999992  16.53000069  47.22999954
C     8.03999996  16.46999931  48.18999863
C     6.86999989  17.01000023  47.93000031
C     6.52999973  17.53999901  46.63999939
C     7.49000025  17.68000031  45.70999908
C     8.82999992  17.15999985  45.96000290
C    12.96000004  16.09000015  46.84000015
C    13.66000080  16.40999985  45.70000076
C    15.01999950  16.44000053  45.66999817
C     5.15999985  18.05999947  46.29000092
H     4.68206501  17.40826988  45.55861282
H     9.76000023  17.85000038  44.18000031
H    10.71000004  16.05999947  48.66000366
H     8.27000046  16.10999870  49.19000244
H     6.10000038  17.06999969  48.69999695
H     7.30999994  18.02000046  44.68999863
H    15.50000000  16.46000099  44.69999695
H     4.55000019  18.15999985  47.19999695
H     5.13000011  19.03000069  45.79000092
S    16.13999939  15.47999954  49.26000214
C    18.70000076  14.92000008  48.40000153
C    17.56000137  15.52000046  48.20000076
C    17.21999931  15.93999958  46.90999985
C    18.22000122  16.00000000  45.90999985
C    19.54000092  15.57000065  46.12999725
C    20.65999985  15.93000031  45.31999969
C    21.97000122  15.57999992  45.70000076
C    22.13000107  14.81999969  46.86000061
C    21.04999924  14.52999973  47.75000000
C    19.73999977  14.98999977  47.43999863
C    15.78999996  16.18999863  46.79999924
C    15.06999969  15.97000027  47.97999954
C    13.69999981  15.84000015  48.00000000
C    23.54000092  14.40999985  47.23999786
H    23.88788414  14.91407585  48.14165497
H    18.97999954  14.27999973  49.23999786
H    17.87999916  16.46000099  44.99000168
H    20.48000145  16.54999924  44.45000076
H    22.88999939  15.85000038  45.18000031
H    21.21999931  13.94999981  48.64999771
H    13.12999916  15.72000027  48.92000198
H    24.18999863  14.70000076  46.39999771
H    23.50000000  13.31999969  47.32999802
S    15.97000027  13.15000057  52.43000031
C    18.57999992  12.46000099  51.66999817
C    17.22999954  12.46000099  51.45000076
C    16.72999954  11.97000027  50.14999771
C    17.63000107  11.50000000  49.18000031
C    19.02000046  11.33999920  49.45999908
C    19.86999893  10.75000000  48.53000259
C    21.18999863  10.72000027  48.72000122
C    21.68999863  11.13999939  49.94999695
C    20.86999893  11.78999996  50.87999725
C    19.47000122  11.89000034  50.66999817
C    15.31999969  12.20999908  50.00999832
C    14.75999928  12.86000061  51.18999863
C    13.48000050  13.30999947  51.26999664
C    23.22000122  11.03999996  50.15999603
H    23.54438019  11.40861416  51.13313675
H    19.03000069  13.02999973  52.48000336
H    17.19000053  11.36000061  48.18999863
H    19.36000061  10.51000023  47.58999634
H    21.78999901  10.32999992  47.90000153
H    21.21000099  12.15999985  51.84999847
H    13.12999916  13.71000099  52.22000122
H    23.45999908   9.98000050  50.01999664
H    23.75999832  11.51000023  49.33000183
S    12.02000046  12.15000057  47.72999573
C     9.30999947  12.76000023  48.36000061
C    10.69000053  12.79999924  48.68000031
C    11.16000080  13.34000015  49.97000122
C    10.22999954  13.89000034  50.86000061
C     8.82000065  13.76000023  50.59999847
C     7.83999968  14.28999996  51.55000305
C     6.47000027  14.32000065  51.27999878
C     6.07999992  13.81000042  50.00999832
C     6.93000031  13.38000107  49.06000137
C     8.34999943  13.30999947  49.29000092
C    12.64999962  13.03999996  50.17000198
C    13.21000004  12.43000031  49.05000305
C    14.42999935  11.90999985  48.97999573
C     4.61999989  14.06999969  49.58000183
H     4.36304665  13.69884491  48.58787155
H     8.97999954  12.36999989  47.38999939
H    10.57000065  14.23999977  51.83000183
H     8.15999985  14.86999989  52.41000366
H     5.79999971  14.91000080  51.90000153
H     6.48999977  13.10999966  48.09999847
H    14.73000050  11.57999992  47.98999786
H     4.34999990  15.14000034  49.58000183
H     3.98000002  13.66000080  50.37000275
