96

S    12.43999958  16.45000076  44.26000214
C     9.75000000  16.84999847  44.95999908
C    11.00000000  16.46999931  45.34000015
C    11.35000038  16.20000076  46.63000107
C    10.36000061  16.03999901  47.49000168
C     9.02000046  16.29999924  47.12999725
C     8.00000000  16.36999893  48.13999939
C     6.77999973  16.92000008  47.84999847
C     6.48000002  17.43999863  46.56000137
C     7.46000004  17.36999893  45.59999847
C     8.69999981  16.79000092  45.86000061
C    12.84000015  16.15999985  46.88999939
C    13.55000019  16.28999901  45.63000107
C    14.98000050  16.20000076  45.47999954
C     5.12000036  17.86999893  46.13999939
H     4.66672802  17.23395729  45.37967300
H     9.61999989  17.23999977  43.95999908
H    10.54999924  15.72999954  48.52000427
H     8.17000008  16.03999901  49.15999985
H     6.07999992  16.95000076  48.68000031
H     7.26999998  17.80999947  44.62999725
H    15.44999981  16.40999985  44.52000046
H     4.53000021  17.77000046  47.05999756
H     5.15999985  18.94000053  45.86999893
S    15.95999908  15.46000004  49.20999908
C    18.65999985  14.82999992  48.40999985
C    17.36999893  15.29000092  48.09000015
C    17.05999947  15.75000000  46.79000092
C    17.95999908  15.69000053  45.79999924
C    19.32999992  15.42000008  46.06999969
C    20.32999992  15.43000031  45.13999939
C    21.57999992  14.96000099  45.43000031
C    21.80999947  14.47000027  46.68000031
C    20.88000107  14.47999954  47.62000275
C    19.56999969  14.92000008  47.36999893
C    15.59999943  15.93999958  46.66999817
C    14.93999958  15.88000107  47.87000275
C    13.59000015  15.95000076  48.04999924
C    23.23999786  14.17000008  47.12999725
H    23.39657021  14.54719543  48.14059448
H    18.93000031  14.40999985  49.38000107
H    17.57999992  15.75000000  44.78000259
H    19.95000076  15.44000053  44.12000275
H    22.36999893  14.96000099  44.68000031
H    21.14000130  14.17000008  48.62999725
H    13.20000076  15.77000046  49.05000305
H    23.98999977  14.65000057  46.49000168
H    23.38000107  13.09000015  47.19999695
S    12.13000107  17.29999924  51.20999908
C     9.31999969  17.38000107  51.79000092
C    10.67000008  17.20999908  52.23999786
C    10.98000050  16.87000084  53.57999802
C    10.01000023  16.92000008  54.50000000
C     8.64999962  17.13000107  54.13000107
C     7.62000036  17.15999985  55.12000275
C     6.28000021  17.38000107  54.75000000
C     5.95000029  17.67000008  53.40999985
C     6.93000031  17.75000000  52.45999908
C     8.30999947  17.45000076  52.77999878
C    12.42000008  16.75000000  53.74000168
C    13.12000084  16.93000031  52.56999969
C    14.47000027  16.84999847  52.42000198
C     4.53999996  18.13999939  53.06000137
H     4.06359577  17.51169777  52.30742264
H     9.07999992  17.61999893  50.75000000
H    10.19999981  16.75000000  55.56000137
H     7.90000010  16.93000031  56.13999939
H     5.52999973  17.31999969  55.52999878
H     6.77999973  17.88999939  51.38999939
H    15.03000069  17.02000046  51.51000214
H     3.88999987  18.22999954  53.93000031
H     4.55000019  19.19000053  52.75000000
S    15.65999985  15.80999947  55.90000153
C    18.38000107  15.39999962  55.25000000
C    17.10000038  15.75000000  54.85000229
C    16.72000122  16.06999969  53.48999786
C    17.73999977  16.10000038  52.55000305
C    19.09000015  15.76000023  52.85999680
C    20.06999969  15.67999935  51.90000153
C    21.37000084  15.34000015  52.22000122
C    21.64999962  15.01000023  53.53000259
C    20.69000053  15.14000034  54.55999756
C    19.34999847  15.51000023  54.27000046
C    15.29000092  16.31000137  53.40999985
C    14.56999969  16.21000099  54.68000031
C    13.17000008  16.46000099  54.86000061
C    23.02999878  14.52000046  53.95000076
H    23.22301865  15.10647678  54.84827042
H    18.63000107  14.92000008  56.18999863
H    17.51000023  16.29999924  51.51000214
H    19.78000069  15.65000057  50.84999847
H    22.11999893  15.17000008  51.45999908
H    21.02000046  14.72000027  55.50000000
H    12.84999943  16.18000031  55.84999847
H    23.74000168  14.75000000  53.15000153
H    22.93999863  13.43999958  54.13000107
