96

S    12.23000050  16.88999939  44.38000107
C     9.52999973  17.06999969  45.02999878
C    10.77999973  16.54000092  45.24000168
C    11.13999939  15.92000008  46.52000046
C    10.14000034  15.82999992  47.48000336
C     8.86999989  16.34000015  47.29999924
C     7.90000010  16.36000061  48.29999924
C     6.63999987  16.81999969  48.11000061
C     6.26999950  17.28999901  46.84000015
C     7.16000032  17.35000038  45.79000092
C     8.52000046  16.88999939  45.97999954
C    12.55000019  15.71000004  46.72000122
C    13.30000019  16.14999962  45.63999939
C    14.73000050  16.20000076  45.61999893
C     4.79999971  17.64000130  46.63000107
H     4.41069889  17.40641975  45.63904953
H     9.36999989  17.64999962  44.12000275
H    10.39999962  15.44000053  48.46000290
H     8.23000050  16.06999969  49.29000092
H     5.92999983  16.82999992  48.94000244
H     7.00000000  17.88999939  44.86999893
H    15.34000015  16.69999886  44.86999893
H     4.28000021  17.14999962  47.45999908
H     4.69000006  18.70000076  46.90000153
S    15.72000027  15.25000000  49.36000061
C    18.32999992  15.00000000  48.75000000
C    17.09000015  15.34999943  48.34999847
C    16.84000015  15.86999989  47.06999969
C    17.85000038  16.03000069  46.22000122
C    19.19999886  15.70000076  46.50000000
C    20.22999954  15.60999966  45.54999924
C    21.44000053  14.98999977  45.90999985
C    21.73999977  14.56999969  47.25000000
C    20.72000122  14.53999996  48.16999817
C    19.40999985  15.03000069  47.77000046
C    15.44000053  15.90999985  46.84999847
C    14.68000031  15.57999992  47.95999908
C    13.28999996  15.44999981  47.90999985
C    23.03999901  13.94999981  47.67000198
H    23.46238708  14.49409294  48.51477814
H    18.59000015  14.60999966  49.72999954
H    17.64000130  16.38000107  45.20999908
H    20.02000046  15.92000008  44.52999878
H    22.29000092  14.93000031  45.25000000
H    20.94000053  14.11999893  49.15000153
H    12.69999981  15.06999969  48.74000168
H    23.74000168  13.83999920  46.84000015
H    22.67999840  12.94999981  47.95999908
S    16.10000038  12.48999977  51.93000031
C    18.45999908  11.61000061  51.20999908
C    17.18000031  11.72999954  50.86999893
C    16.69999886  11.47999954  49.55999756
C    17.57999992  11.13999939  48.59000397
C    18.96999931  11.02000046  48.88999939
C    19.95000076  10.62000084  47.91999817
C    21.28000069  10.38000011  48.40000153
C    21.67000008  10.57999992  49.75000000
C    20.72999954  11.06999969  50.63999939
C    19.40000153  11.19999981  50.25000000
C    15.29999924  11.80999947  49.48999786
C    14.84000015  12.38999939  50.68000031
C    13.56999969  12.82999992  50.80999756
C    23.15000153  10.55999947  50.17000198
H    23.38489914  10.73617554  51.21970749
H    18.96999931  12.02999973  52.06999969
H    17.29999924  11.06999969  47.54000092
H    19.61000061  10.29000092  46.93999863
H    21.97999954  10.15999985  47.60000229
H    20.93000031  11.43000031  51.65000153
H    13.12000084  13.23999977  51.70999908
H    23.67000198   9.64999962  49.82999802
H    23.72999954  11.32999992  49.65000153
S    11.82999992  11.77999973  47.32999802
C     9.25000000  12.22000027  48.30999756
C    10.60999966  12.15000057  48.54000092
C    11.21999931  12.53000069  49.75000000
C    10.47000027  13.17999935  50.66999817
C     9.06999969  13.27999973  50.47000122
C     8.19999981  13.94999981  51.43000031
C     6.85999966  14.09000015  51.25000000
C     6.26999950  13.55999947  50.06999969
C     7.00000000  12.82999992  49.12000275
C     8.42000008  12.69999981  49.29999924
C    12.64999962  12.46999931  49.75999832
C    13.15000057  12.03999996  48.54000092
C    14.50000000  11.69000053  48.39000320
C     4.88000011  13.99000072  49.72000122
H     4.53982353  13.58040047  48.76889420
H     8.89999962  12.00000000  47.30999756
H    10.85000038  13.59000015  51.59999847
H     8.80999947  14.29999924  52.25999832
H     6.38999987  14.73999977  51.97000122
H     6.57000017  12.38999939  48.22000122
H    14.93999958  11.30000019  47.48000336
H     4.63999987  15.05000019  49.91000366
H     4.26999998  13.56999969  50.52999878
