96

S    12.13999939  16.90999985  44.34999847
C     9.51000023  17.39999962  45.15999603
C    10.76000023  16.92000008  45.41999817
C    11.07999992  16.46999931  46.75000000
C    10.03999901  16.42000008  47.71999741
C     8.75000000  16.80999947  47.36999893
C     7.59999990  16.86000061  48.30999756
C     6.32999992  17.20000076  47.94000244
C     6.07999992  17.48999977  46.60999680
C     7.13000011  17.61000061  45.72000122
C     8.48999977  17.35000038  46.09000397
C    12.56999969  16.36999893  46.91999817
C    13.21000004  16.57999992  45.66999817
C    14.57999992  16.46000099  45.54999924
C     4.73000002  17.81999969  46.18000031
H     4.32936049  17.25769997  45.33655167
H     9.28999996  17.76000023  44.15999985
H    10.13000011  15.93000031  48.68000031
H     7.63000011  16.50000000  49.34000015
H     5.55000019  17.06999969  48.68000031
H     6.91999960  17.95999908  44.71000290
H    15.15999985  16.65999985  44.65999985
H     4.00000000  17.76000023  47.00000000
H     4.75000000  18.88000107  45.86999893
S    15.82999992  15.82999992  49.34999847
C    18.38000107  15.11000061  48.57999802
C    17.13000107  15.62999916  48.25000000
C    16.75000000  16.06999969  46.88000107
C    17.76000023  16.17000008  45.91999817
C    19.03000069  15.71000004  46.26999664
C    20.09000015  15.78999996  45.27000046
C    21.35999870  15.24000072  45.48999786
C    21.65999985  14.73000050  46.83000183
C    20.69999886  14.82999992  47.80000305
C    19.37999916  15.21999931  47.61000061
C    15.34000015  16.22999954  46.79000092
C    14.68999958  16.15999985  48.02999878
C    13.30000019  16.11999893  48.11000061
C    23.02999878  14.32999992  47.22000122
H    23.33515549  14.68370438  48.20482254
H    18.71999931  14.70999908  49.54000092
H    17.63000107  16.56999969  44.92000198
H    19.88000107  16.39999962  44.40000153
H    22.18000031  15.39999962  44.80999756
H    20.86999893  14.52999973  48.82999802
H    12.76999950  15.77000046  48.99000168
H    23.74000168  14.63999939  46.45000076
H    23.09999847  13.23999977  47.32999802
S    11.96000004  17.26000023  50.98999786
C     9.18000031  17.43999863  51.49000168
C    10.47000027  17.20999908  51.97000122
C    10.75000000  16.95999908  53.36999893
C     9.68000031  16.84000015  54.20000076
C     8.38999939  17.05000114  53.76999664
C     7.30999994  17.05000114  54.71000290
C     6.09000015  17.42000008  54.31000137
C     5.89999962  18.04000092  53.06000137
C     6.84999990  17.92000008  52.05999756
C     8.10999966  17.45000076  52.41000366
C    12.18000031  16.81999969  53.55999756
C    12.97000027  17.05999947  52.43000031
C    14.35999966  17.06999969  52.41000366
C     4.53999996  18.53000069  52.68000031
H     4.08633375  17.89203262  51.92152405
H     9.03999996  17.92000008  50.52999878
H     9.80000019  16.72999954  55.27999878
H     7.59999990  16.73999977  55.70999908
H     5.22000027  17.12000084  54.88999939
H     6.57000017  18.30999947  51.07999802
H    14.98999977  17.13000107  51.52999878
H     3.84999990  18.59000015  53.54000092
H     4.65000010  19.57999992  52.36999893
S    15.31000042  15.82999992  56.00000000
C    17.97000122  15.31000042  55.21999741
C    16.72999954  15.75000000  54.92000198
C    16.46999931  16.29999924  53.69999695
C    17.43000031  16.31000137  52.70999908
C    18.75000000  15.85999966  53.00000000
C    19.80999947  15.75000000  52.05999756
C    21.09999847  15.34000015  52.37999725
C    21.28000069  14.81999969  53.66000366
C    20.26000023  14.77000046  54.61000061
C    19.00000000  15.44000053  54.31999969
C    15.06000042  16.73999977  53.56999969
C    14.29999924  16.47999954  54.73999786
C    12.90999985  16.52000046  54.73999786
C    22.63999939  14.39000034  53.97999573
H    23.04195023  14.89961815  54.85568237
H    18.09999847  14.78000069  56.16000366
H    17.32999992  16.75000000  51.72999954
H    19.64999962  15.97000027  51.00999832
H    21.80999947  15.34999943  51.56000137
H    20.36000061  14.27000046  55.56999969
H    12.30999947  16.31000137  55.61999893
H    23.23999786  14.60000038  53.08000183
H    22.47999954  13.30999947  54.10999680
