96

S    12.00000000  16.70999908  44.29999924
C     9.39000034  17.38000107  44.98000336
C    10.59999943  16.76000023  45.33000183
C    10.88000107  16.43000031  46.65000153
C     9.84000015  16.38000107  47.56999969
C     8.56000042  16.86000061  47.22999954
C     7.53999996  17.02000046  48.15999985
C     6.38000011  17.64999962  47.72999573
C     6.14000034  17.98999977  46.31000137
C     7.17000008  17.84000015  45.41999817
C     8.39999962  17.36999893  45.89000320
C    12.30000019  16.04999924  46.84999847
C    13.02000046  16.20000076  45.66999817
C    14.42000008  16.07999992  45.63000107
C     4.77999973  18.53999901  45.86999893
H     4.27899647  17.86258698  45.17847443
H     9.42000008  17.71999931  43.95000076
H    10.05000019  16.13999939  48.61000061
H     7.67000008  16.73999977  49.19000244
H     5.68000031  17.93000031  48.50999832
H     7.03999996  18.15999985  44.38999939
H    14.89999962  16.15999985  44.65999985
H     4.01999998  18.79999924  46.60999680
H     4.94000006  19.44000053  45.27000046
S    15.53999996  15.27999973  49.27999878
C    18.13999939  14.86999989  48.54999924
C    16.90000153  15.26999950  48.20999908
C    16.56999969  15.75000000  46.86000061
C    17.54999924  15.69000053  45.91999817
C    18.86999893  15.34999943  46.25999832
C    19.92000008  15.25000000  45.27999878
C    21.18000031  14.80999947  45.59999847
C    21.45000076  14.35999966  46.91999817
C    20.46999931  14.48999977  47.88999939
C    19.14999962  14.93000031  47.58999634
C    15.11000061  15.93000031  46.83000183
C    14.42999935  15.73999977  47.95999908
C    13.03999996  15.75000000  48.04000092
C    22.85000038  13.96000004  47.29000092
H    23.25305939  14.55398369  48.11026001
H    18.31999969  14.63999939  49.59999847
H    17.31999969  15.85000038  44.86999893
H    19.69000053  15.52000046  44.26000214
H    21.97000122  14.96999931  44.86999893
H    20.69999886  14.40000057  48.94000244
H    12.58999920  15.48999977  49.00000000
H    23.48999977  13.89000034  46.39999771
H    22.84000015  12.96000004  47.75000000
S    15.72000027  12.61999989  52.42000198
C    18.34000015  12.15999985  51.65000153
C    17.00000000  12.13000107  51.27999878
C    16.59000015  11.75000000  49.99000168
C    17.56999969  11.39999962  49.06999969
C    18.95000076  11.42000008  49.33000183
C    19.96000099  10.90000057  48.47000122
C    21.25999832  10.73999977  48.88000107
C    21.56999969  11.05999947  50.18000031
C    20.69000053  11.61999893  51.06999969
C    19.34999847  11.77999973  50.65999985
C    15.15999985  11.84999943  49.91000366
C    14.53999996  12.27000046  51.14999771
C    13.25000000  12.79999924  51.17000198
C    22.96999931  10.75000000  50.70000076
H    23.43967438  11.32641983  51.49702454
H    18.76000023  12.38999939  52.62000275
H    17.23999977  11.07999992  48.09000015
H    19.65999985  10.31000042  47.61000061
H    21.97000122  10.22999954  48.23999786
H    20.89999962  11.75000000  52.12999725
H    12.81999969  13.19000053  52.09000015
H    22.96999931   9.70000076  51.03000259
H    23.68999863  10.72000027  49.86999893
S    11.87999916  12.15000057  47.44999695
C     9.26000023  12.79000092  48.06999969
C    10.50000000  12.56999969  48.52000427
C    11.00000000  12.88000011  49.81999969
C    10.11999989  13.27000046  50.77999878
C     8.73000050  13.35999966  50.38000107
C     7.82000017  13.94999981  51.26999664
C     6.61999989  14.27000046  50.89000320
C     6.11999989  14.04999924  49.54999924
C     6.98999977  13.53999996  48.61999893
C     8.30000019  13.19000053  49.02999878
C    12.46999931  12.71000004  49.99000168
C    13.07999992  12.28000069  48.76999664
C    14.37999916  11.84000015  48.70999908
C     4.65999985  14.32000065  49.25000000
H     4.32297754  13.71616745  48.40744400
H     8.78999996  12.42000008  47.15999985
H    10.39000034  13.55000019  51.79999924
H     8.11999989  14.23999977  52.27000427
H     5.92999983  14.63000107  51.65000153
H     6.83000040  13.53000069  47.54000092
H    14.85000038  11.59999943  47.76000214
H     4.44999981  15.36000061  48.96999741
H     4.07000017  14.34000015  50.17000198
