96

S    12.34000015  16.87000084  44.34999847
C     9.73999977  17.36999893  45.06000137
C    10.93999958  16.80999947  45.34999847
C    11.25000000  16.28999901  46.56000137
C    10.26999950  16.25000000  47.57999802
C     8.92000008  16.61999893  47.23999786
C     7.90000010  16.57999992  48.16999817
C     6.60000038  17.01000023  47.87000275
C     6.34999990  17.54999924  46.59999847
C     7.36000013  17.64999962  45.68999863
C     8.61999989  17.19000053  45.97000122
C    12.69000053  16.03999901  46.76000214
C    13.38999939  16.38000107  45.63000107
C    14.75999928  16.43000031  45.54999924
C     4.94000006  18.09000015  46.26999664
H     4.59459877  17.52152634  45.40649414
H     9.61999989  17.84000015  44.09000015
H    10.55999947  15.90999985  48.56999969
H     8.09000015  16.25000000  49.19000244
H     5.78999996  17.15999985  48.56999969
H     7.11999989  18.18000031  44.77000427
H    15.21000004  16.69000053  44.59999847
H     4.26000023  17.98999977  47.12999725
H     5.07999992  19.12999916  45.94999695
S    15.92000008  15.46000004  49.18000031
C    18.52000046  15.31000042  48.54999924
C    17.28999901  15.67000008  48.13999939
C    16.95000076  16.10999870  46.84999847
C    17.92000008  16.06999969  45.89000320
C    19.22000122  15.82999992  46.18000031
C    20.29999924  15.77000046  45.20999908
C    21.52000046  15.32999992  45.56999969
C    21.81999969  15.07999992  46.91999817
C    20.90999985  15.19999981  47.95000076
C    19.52999878  15.55999947  47.63000107
C    15.51000023  16.21000099  46.72000122
C    14.78999996  15.90000057  47.88000107
C    13.38999939  15.84000015  47.93000031
C    23.21000099  14.60000038  47.23999786
H    23.40200424  14.96267509  48.24980164
H    18.73999977  14.63000107  49.36999893
H    17.64000130  15.97000027  44.84000397
H    20.06999969  15.95000076  44.15999985
H    22.25000000  15.17000008  44.78000259
H    21.15999985  14.70000076  48.88000107
H    12.92000008  15.73999977  48.89999771
H    23.97000122  14.85999966  46.49000168
H    23.21000099  13.50999928  47.31999969
S    11.61999893  16.97000122  50.81999969
C     8.96000004  17.20000076  51.72999954
C    10.24000072  16.86000061  51.97000122
C    10.67000008  16.54000092  53.26000214
C     9.76000023  16.55999947  54.25000000
C     8.43000031  17.06999969  54.01000214
C     7.51999950  17.06999969  55.01999664
C     6.19000006  17.26000023  54.68000031
C     5.82999992  17.77000046  53.31999969
C     6.80000019  17.89999962  52.32999802
C     8.06999969  17.46000099  52.67000198
C    12.17000008  16.60000038  53.34000015
C    12.79999924  16.82999992  52.12999725
C    14.18000031  17.01000023  52.04999924
C     4.46000004  18.15999985  52.91999817
H     4.01039410  17.68091202  52.05027008
H     8.59000015  17.39999962  50.72999954
H    10.01000023  16.07999992  55.19000244
H     7.86000013  16.57999992  55.93000031
H     5.38000011  17.17000008  55.40000153
H     6.60000038  18.27999878  51.32999802
H    14.75999928  17.25000000  51.16000366
H     3.81999993  18.04000092  53.79000092
H     4.51000023  19.20999908  52.60000229
S    15.38000011  16.00000000  55.70999908
C    17.98999977  15.65999985  54.97000122
C    16.72000122  16.13000107  54.65999985
C    16.38000107  16.63999939  53.31999969
C    17.36999893  16.68000031  52.38999939
C    18.68000031  16.27000046  52.65999603
C    19.70999908  16.28000069  51.68000031
C    20.98999977  15.93000031  51.95000076
C    21.31000137  15.44000053  53.27000046
C    20.31999969  15.46000004  54.29999924
C    19.02000046  15.81999969  54.02999878
C    14.93000031  16.81999969  53.22000122
C    14.22000027  16.55999947  54.43999863
C    12.90999985  16.40999985  54.45999908
C    22.72999954  15.07999992  53.63999939
H    23.02350426  15.42242050  54.63232040
H    18.12000084  15.19000053  55.93999863
H    17.07999992  16.94000053  51.37000275
H    19.36000061  16.65999985  50.72000122
H    21.80000114  15.90000057  51.23000336
H    20.52000046  15.14000034  55.31999969
H    12.38999939  16.13999939  55.37000275
H    23.38999939  15.52999973  52.88999939
H    22.81999969  13.99000072  53.55999756
