96

S    12.36999989  16.57999992  44.12000275
C     9.77000046  16.79000092  44.72000122
C    11.02000046  16.43000031  45.11000061
C    11.32999992  15.97000027  46.43000031
C    10.27999973  15.81999969  47.35000229
C     8.92000008  16.20000076  47.02000046
C     7.94000053  16.25000000  48.00000000
C     6.72999954  16.72000122  47.61000061
C     6.43000031  17.22999954  46.35000229
C     7.34000015  17.04000092  45.31000137
C     8.67000008  16.63999939  45.65000153
C    12.81000042  15.85000038  46.63999939
C    13.50000000  16.21999931  45.45999908
C    14.85000038  16.15999985  45.31999969
C     5.05000019  17.80999947  45.94999695
H     4.54060221  17.12859726  45.26859665
H     9.61999989  17.15999985  43.70999908
H    10.47000027  15.88000107  48.41999817
H     8.14000034  15.98999977  49.03999710
H     5.98999977  16.73999977  48.40000153
H     7.16000032  17.46000099  44.31999969
H    15.34999943  16.27000046  44.36999893
H     4.32999992  17.88999939  46.77999878
H     5.09000015  18.81999969  45.52999878
S    16.03000069  14.92000008  48.87000275
C    18.63999939  14.70999908  48.04000092
C    17.36999893  15.14000034  47.76000214
C    17.00000000  15.53999996  46.45999908
C    18.04000092  15.52000046  45.47999954
C    19.32999992  15.01999950  45.68000031
C    20.45999908  15.06000042  44.75000000
C    21.70999908  14.75000000  45.12000275
C    22.01999855  14.52999973  46.51000214
C    20.95000076  14.34000015  47.36000061
C    19.61000061  14.60000038  47.02999878
C    15.59999943  15.73999977  46.42000198
C    14.91000080  15.39000034  47.56999969
C    13.55999947  15.44999981  47.69000244
C    23.52999878  14.47000027  47.04999924
H    23.68943405  14.63668251  48.11531448
H    18.89999962  14.35999966  49.03999710
H    17.80999947  15.85000038  44.47000122
H    20.23999977  15.64000034  43.86000061
H    22.53999901  15.08999920  44.51000214
H    21.14000130  14.27999973  48.43000031
H    13.12000084  15.11000061  48.61999893
H    24.21999931  15.11000061  46.47999573
H    23.77000046  13.42000008  46.81000137
S    12.25999928  16.51000023  50.61000061
C     9.52000046  17.00000000  51.38000107
C    10.85999966  16.69999886  51.68000031
C    11.13999939  16.39999962  53.02000046
C    10.14000034  16.22999954  53.94000244
C     8.82999992  16.57999992  53.68999863
C     7.85000038  16.75000000  54.72000122
C     6.60000038  17.28999901  54.43999863
C     6.25999975  17.54999924  53.11000061
C     7.13000011  17.39999962  52.02000046
C     8.47999954  16.98999977  52.36999893
C    12.58999920  16.36999893  53.26000214
C    13.31999969  16.36999893  52.04000092
C    14.68999958  16.39000130  52.01000214
C     4.90999985  18.15999985  52.80000305
H     4.46064901  17.61079216  51.97262573
H     9.28999996  17.35999870  50.38000107
H    10.42000008  16.20000076  54.99000168
H     8.14999962  16.55999947  55.75000000
H     5.79999971  17.46000099  55.15999603
H     6.89000034  17.71000099  51.00999832
H    15.19999981  16.45000076  51.04999924
H     4.32999992  18.20999908  53.73000336
H     5.09999990  19.22999954  52.62000275
S    15.53999996  15.69000053  55.84999847
C    18.15999985  15.03999901  55.11000061
C    16.98999977  15.62999916  54.75999832
C    16.67000008  15.93999958  53.43999863
C    17.65999985  15.93999958  52.50999832
C    18.96000099  15.47000027  52.85999680
C    19.97999954  15.34999943  51.79999924
C    21.24000168  14.86999989  52.06999969
C    21.48999977  14.51000023  53.43000031
C    20.52999878  14.52000046  54.45000076
C    19.22999954  15.01000023  54.16999817
C    15.29000092  16.18999863  53.23999786
C    14.55999947  16.09000015  54.45000076
C    13.22999954  16.21000099  54.48999786
C    22.95000076  14.26000023  53.86000061
H    23.16461563  14.80764389  54.77767563
H    18.38000107  14.65000057  56.10000229
H    17.43999863  16.35000038  51.52999878
H    19.71999931  15.85999966  50.87999725
H    22.01000023  14.93000031  51.31000137
H    20.75000000  14.04999924  55.40999985
H    12.63000011  16.09000015  55.38999939
H    23.57999992  14.39000034  52.97000122
H    23.08000183  13.19000053  54.06000137
