96

S    12.25000000  16.90999985  44.15000153
C     9.64999962  17.04000092  44.86000061
C    10.90999985  16.75000000  45.19000244
C    11.16000080  16.22999954  46.49000168
C    10.19999981  15.98000050  47.48000336
C     8.86999989  16.46000099  47.25000000
C     7.88000011  16.54000092  48.27999878
C     6.65000010  17.12000084  47.95000076
C     6.40999985  17.61999893  46.60999680
C     7.42999983  17.57999992  45.70000076
C     8.69999981  16.98999977  45.94999695
C    12.61000061  15.97000027  46.62000275
C    13.28999996  16.23999977  45.38000107
C    14.68000031  16.18000031  45.31999969
C     5.00999975  18.09999847  46.16000366
H     4.61740923  17.50766945  45.33349228
H     9.40999985  17.53000069  43.92000198
H    10.47999954  15.52999973  48.43000031
H     8.14000034  16.11999893  49.25000000
H     5.84999990  16.97000122  48.67000198
H     7.23000002  17.89999962  44.68000031
H    15.24000072  16.55999947  44.47000122
H     4.26000023  18.09000015  46.97000122
H     5.13000011  19.13999939  45.83000183
S    15.80999947  14.96999931  48.93000031
C    18.50000000  14.84000015  48.29999924
C    17.21999931  15.17000008  47.95000076
C    16.84999847  15.65000057  46.62000275
C    17.88999939  15.64000034  45.72999954
C    19.26000023  15.34000015  46.11000061
C    20.31999969  15.42000008  45.11000061
C    21.55999947  14.80000019  45.40999985
C    21.81999969  14.40999985  46.77000046
C    20.78000069  14.30999947  47.63999939
C    19.55999947  14.85999966  47.37999725
C    15.36000061  15.67999935  46.44000244
C    14.68000031  15.39999962  47.64999771
C    13.30999947  15.44999981  47.70999908
C    23.22999954  14.11999893  47.18000031
H    23.56713295  14.55755806  48.11967087
H    18.63000107  14.25000000  49.20000076
H    17.71000099  15.84000015  44.68000031
H    20.09000015  15.77000046  44.10999680
H    22.36000061  14.92000008  44.68000031
H    20.90999985  13.69999981  48.53000259
H    12.72999954  15.06999969  48.54999924
H    23.78000069  14.50000000  46.31000137
H    23.32999992  13.02999973  47.19999695
S    16.03000069  12.63000011  52.49000168
C    18.63000107  12.11999989  51.56000137
C    17.26000023  12.20000076  51.27999878
C    16.77999878  11.82999992  49.99000168
C    17.61999893  11.54000092  49.00000000
C    19.01000023  11.33999920  49.29999924
C    19.96000099  10.80999947  48.34000015
C    21.31999969  10.84000015  48.50000000
C    21.80000114  11.23999977  49.75999832
C    20.93000031  11.69999981  50.76000214
C    19.52999878  11.71000004  50.63000107
C    15.34000015  11.97999954  49.95999908
C    14.80000019  12.50000000  51.14999771
C    13.47000027  12.74000072  51.39999771
C    23.35000038  11.16000080  50.06000137
H    23.66129684  11.65524673  50.97974396
H    18.96000099  12.64000034  52.45999908
H    17.15999985  11.13999939  48.09999847
H    19.56999969  10.44000053  47.38999939
H    21.96000099  10.42000008  47.74000168
H    21.35000038  12.13000107  51.65999985
H    13.21000004  13.32999992  52.27000427
H    23.59999847  10.10000038  50.12000275
H    23.95999908  11.68000031  49.31000137
S    12.03999996  12.05999947  47.69000244
C     9.44000053  12.71999931  48.40999985
C    10.77000046  12.69999981  48.76999664
C    11.21999931  12.97999954  50.08999634
C    10.27999973  13.47000027  50.98999786
C     8.89000034  13.60000038  50.63999939
C     7.82999992  14.11000061  51.52000046
C     6.44999981  14.19000053  51.12999725
C     6.15000010  13.85000038  49.86000061
C     7.09000015  13.28999996  49.01000214
C     8.43000031  13.26000023  49.29000092
C    12.64000034  12.63000011  50.28999710
C    13.17000008  12.13999939  49.06999969
C    14.53999996  11.82999992  48.88999939
C     4.74000025  14.11000061  49.29999924
H     4.48336411  13.61872482  48.36144257
H     9.06999969  12.05000019  47.63000107
H    10.52999973  13.59000015  52.04000092
H     8.07999992  14.40999985  52.54000092
H     5.69000006  14.70999908  51.70999908
H     6.80000019  12.97999954  48.01000214
H    14.91000080  11.57999992  47.90000153
H     4.63000011  15.18000031  49.09000015
H     4.01999998  13.89999962  50.10000229
