96

S    11.90999985  16.87999916  44.34000015
C     9.22999954  17.17000008  45.06000137
C    10.46000004  16.63999939  45.40000153
C    10.80999947  16.26000023  46.72000122
C     9.88000011  16.26000023  47.69000244
C     8.59000015  16.73999977  47.41000366
C     7.49000025  16.73999977  48.36000061
C     6.25000000  17.21999931  48.11000061
C     5.98999977  17.71999931  46.81999969
C     6.97000027  17.81999969  45.86999893
C     8.23999977  17.25000000  46.09000397
C    12.27000046  16.21000099  46.84999847
C    12.97000027  16.60000038  45.68000031
C    14.42000008  16.54999924  45.66999817
C     4.55000019  18.01000023  46.38000107
H     4.34484196  17.54497528  45.41576004
H     9.13999939  17.64999962  44.09000015
H    10.14999962  15.98000050  48.69999695
H     7.76000023  16.38000107  49.36000061
H     5.51000023  17.21999931  48.89999771
H     6.77999973  18.15000153  44.85000229
H    14.93999958  16.72000122  44.72999954
H     3.88000011  17.53999901  47.09999847
H     4.40000010  19.10000038  46.37000275
S    15.53999996  15.26000023  49.31000137
C    18.06999969  14.63000107  48.30999756
C    16.86000061  15.26000023  48.16999817
C    16.54999924  15.90000057  46.91999817
C    17.53999901  15.98000050  45.97000122
C    18.78999901  15.39999962  46.17000198
C    19.85000038  15.65999985  45.21999741
C    21.17000198  15.19000053  45.44000244
C    21.47999954  14.51000023  46.66999817
C    20.43000031  14.27000046  47.58999634
C    19.07999992  14.73999977  47.35000229
C    15.14000034  16.17000008  46.81000137
C    14.39000034  15.82999992  48.02999878
C    12.94999981  15.88999939  48.04999924
C    22.84000015  14.09000015  47.16999817
H    23.15096092  14.57371616  48.09597015
H    18.37000084  14.27000046  49.27999878
H    17.30999947  16.26000023  44.93999863
H    19.48999977  16.27000046  44.40000153
H    21.87000084  15.29000092  44.61000061
H    20.65999985  13.83999920  48.55999756
H    12.39999962  15.60999966  48.93000031
H    23.65999985  14.27999973  46.46999741
H    22.84000015  13.00000000  47.27000427
S    16.10000038  13.21000004  52.22999954
C    18.61999893  12.13999939  51.38000107
C    17.30999947  12.35999966  51.19999695
C    16.67000008  11.78999996  50.02999878
C    17.43999863  11.17000008  49.02999878
C    18.79999924  10.88000107  49.27000046
C    19.75000000  10.40999985  48.22999954
C    21.11999893  10.31000042  48.53000259
C    21.61999893  10.64000034  49.85000229
C    20.72000122  11.16000080  50.72000122
C    19.30999947  11.26999950  50.47000122
C    15.25000000  12.15999985  49.95999908
C    14.78000069  12.77999973  51.11999893
C    13.38000107  13.09999943  51.14999771
C    23.06999969  10.44999981  50.14999771
H    23.34720802  10.97737312  51.06275940
H    19.19999886  12.74000072  52.06999969
H    17.01000023  10.95000076  48.04999924
H    19.42000008  10.29999924  47.19999695
H    21.80000114   9.82999992  47.84000015
H    21.09000015  11.73999977  51.56000137
H    13.00000000  13.45999908  52.09999847
H    23.29000092   9.40999985  50.40000153
H    23.67000198  10.62999916  49.25000000
S    11.89000034  12.20999908  47.52999878
C     9.31999969  12.76000023  48.43999863
C    10.65999985  12.74000072  48.57999802
C    11.14999962  13.07999992  49.92000198
C    10.25000000  13.38999939  50.93999863
C     8.88000011  13.56999969  50.65000153
C     8.01999950  14.14000034  51.59000015
C     6.61000013  14.18000031  51.39999771
C     6.11999989  13.76000023  50.15999603
C     7.02000046  13.35999966  49.15000153
C     8.38999939  13.27000046  49.40999985
C    12.58999920  12.92000008  50.05000305
C    13.09000015  12.35000038  48.89999771
C    14.40999985  12.00000000  48.87000275
C     4.69999981  14.04000092  49.81999969
H     4.47052383  13.62277031  48.83951187
H     8.92000008  12.48999977  47.47000122
H    10.67000008  13.69999981  51.88999939
H     8.55000019  14.65000057  52.38999939
H     5.88999987  14.56999969  52.09999847
H     6.61000013  13.04999924  48.18999863
H    14.67000008  11.50000000  47.94000244
H     4.63999987  15.13000011  49.73999786
H     4.05999994  13.67000008  50.63000107
