96

S    12.61000061  16.46000099  44.05000305
C     9.96999931  17.05000114  44.82999802
C    11.17000008  16.47999954  45.12000275
C    11.44999981  16.00000000  46.45999908
C    10.48999977  15.98999977  47.43000031
C     9.19000053  16.42000008  47.08000183
C     8.09000015  16.35000038  47.95999908
C     6.84000015  16.73999977  47.57999802
C     6.65000010  17.35999870  46.26999664
C     7.65999985  17.56999969  45.45999908
C     8.93000031  17.02000046  45.79000092
C    12.90999985  15.82999992  46.58000183
C    13.60000038  16.11999893  45.38999939
C    14.94999981  16.26000023  45.43000031
C     5.23000002  17.78000069  45.89000320
H     4.69592237  17.03662109  45.29818344
H     9.75000000  17.54999924  43.88999939
H    10.65999985  15.78999996  48.48999786
H     8.21000004  16.03999901  49.00000000
H     6.05000019  16.84999847  48.31999969
H     7.50999975  17.95999908  44.45999908
H    15.51000023  16.45000076  44.52000046
H     4.69000006  18.07999992  46.79000092
H     5.26999998  18.68999863  45.27000046
S    15.88999939  15.29000092  49.13999939
C    18.68000031  14.93999958  48.47000122
C    17.40999985  15.36000061  48.15999985
C    17.05000114  15.78999996  46.84000015
C    18.04000092  15.80000019  45.80999756
C    19.30999947  15.29999924  46.05999756
C    20.38000107  15.31999969  45.02999878
C    21.70999908  14.85000038  45.31999969
C    21.97000122  14.39000034  46.65000153
C    20.98999977  14.32999992  47.64999771
C    19.65999985  14.82999992  47.39999771
C    15.59999943  16.01000023  46.63999939
C    14.88000011  15.78999996  47.80000305
C    13.56999969  15.64000034  47.81000137
C    23.32999992  13.97999954  47.06999969
H    23.61428070  14.34245872  48.05788040
H    18.86000061  14.47000027  49.43000031
H    17.71999931  16.18000031  44.85000229
H    20.12000084  15.88000107  44.13000107
H    22.46999931  14.80999947  44.54000092
H    21.24000168  13.99000072  48.64999771
H    13.00000000  15.34000015  48.68000031
H    23.97999954  14.44000053  46.31000137
H    23.42000008  12.89000034  47.02999878
S    16.22999954  12.81999969  52.08000183
C    18.89000130  12.36999989  51.20999908
C    17.48999977  12.32999992  50.97000122
C    17.00000000  11.82000065  49.73999786
C    17.89999962  11.43000031  48.75000000
C    19.30999947  11.38000011  49.09000015
C    20.20000076  10.84000015  48.11999893
C    21.51000023  10.72000027  48.43000031
C    22.06000137  11.09000015  49.59999847
C    21.15999985  11.65999985  50.54999924
C    19.79999924  11.87999916  50.28999710
C    15.53999996  11.80999947  49.64000320
C    14.94999981  12.36999989  50.87999725
C    13.68000031  12.75000000  50.97999954
C    23.54000092  10.62000084  49.99000168
H    23.83337402  11.10657024  50.92020798
H    19.34000015  12.74000072  52.12999725
H    17.61000061  11.18000031  47.72999573
H    19.76000023  10.32999992  47.25999832
H    22.13000107  10.26999950  47.65999603
H    21.32999802  11.76000023  51.62000275
H    13.32999992  13.26000023  51.86999893
H    23.65999985   9.52999973  50.01999664
H    24.06999969  11.21000099  49.22999954
S    12.11999989  11.78999996  47.49000168
C     9.52999973  12.58999920  48.34000015
C    10.90000057  12.43000031  48.62999725
C    11.46000004  12.89000034  49.84000397
C    10.59999943  13.43999958  50.76000214
C     9.19999981  13.60999966  50.56000137
C     8.30000019  13.90999985  51.66999817
C     6.97000027  13.94999981  51.47999573
C     6.50000000  13.76999950  50.17000198
C     7.26999998  13.17000008  49.20000076
C     8.65999985  13.15999985  49.31999969
C    12.84000015  12.56999969  49.93000031
C    13.35000038  11.92999935  48.75000000
C    14.70000076  11.56999969  48.56999969
C     5.03999996  13.89000034  49.73999786
H     4.79268456  13.34590626  48.82846069
H     9.06000042  12.35000038  47.38999939
H    10.92000008  13.71000099  51.77000046
H     8.76000023  13.96000004  52.64999771
H     6.25999975  14.37999916  52.18000031
H     6.85999966  12.79999924  48.27000046
H    15.06999969  11.14999962  47.64999771
H     4.82999992  14.96000099  49.68000031
H     4.44000006  13.55000019  50.59000015
