96

S    12.61000061  16.46000099  44.05000305
C     9.96999931  17.05000114  44.82999802
C    11.17000008  16.47999954  45.12000275
C    11.44999981  16.00000000  46.45999908
C    10.48999977  15.98999977  47.43000031
C     9.19000053  16.42000008  47.08000183
C     8.09000015  16.35000038  47.95999908
C     6.84000015  16.73999977  47.57999802
C     6.65000010  17.35999870  46.26999664
C     7.65999985  17.56999969  45.45999908
C     8.93000031  17.02000046  45.79000092
C    12.90999985  15.82999992  46.58000183
C    13.60000038  16.11999893  45.38999939
C    14.94999981  16.26000023  45.43000031
C     5.23000002  17.78000069  45.89000320
H     4.69592237  17.03662109  45.29818344
H     9.75000000  17.54999924  43.88999939
H    10.65999985  15.78999996  48.48999786
H     8.21000004  16.03999901  49.00000000
H     6.05000019  16.84999847  48.31999969
H     7.50999975  17.95999908  44.45999908
H    15.51000023  16.45000076  44.52000046
H     4.69000006  18.07999992  46.79000092
H     5.26999998  18.68999863  45.27000046
S    15.88999939  15.29000092  49.13999939
C    18.68000031  14.93999958  48.47000122
C    17.40999985  15.36000061  48.15999985
C    17.05000114  15.78999996  46.84000015
C    18.04000092  15.80000019  45.80999756
C    19.30999947  15.29999924  46.05999756
C    20.38000107  15.31999969  45.02999878
C    21.70999908  14.85000038  45.31999969
C    21.97000122  14.39000034  46.65000153
C    20.98999977  14.32999992  47.64999771
C    19.65999985  14.82999992  47.39999771
C    15.59999943  16.01000023  46.63999939
C    14.88000011  15.78999996  47.80000305
C    13.56999969  15.64000034  47.81000137
C    23.32999992  13.97999954  47.06999969
H    23.61428070  14.34245872  48.05788040
H    18.86000061  14.47000027  49.43000031
H    17.71999931  16.18000031  44.85000229
H    20.12000084  15.88000107  44.13000107
H    22.46999931  14.80999947  44.54000092
H    21.24000168  13.99000072  48.64999771
H    13.00000000  15.34000015  48.68000031
H    23.97999954  14.44000053  46.31000137
H    23.42000008  12.89000034  47.02999878
S    12.35000038  16.72000122  50.80999756
C     9.59000015  17.05999947  51.55000305
C    10.85000038  16.67000008  51.86000061
C    11.21000099  16.21999931  53.20000076
C    10.18000031  16.18000031  54.13999939
C     8.89999962  16.65999985  53.85000229
C     7.86000013  16.51000023  54.79000092
C     6.53999996  16.72999954  54.45000076
C     6.21000004  17.30999947  53.22000122
C     7.23000002  17.52000046  52.25999832
C     8.61999989  17.17000008  52.55000305
C    12.61000061  16.17000008  53.36000061
C    13.36999989  16.53000069  52.22000122
C    14.77000046  16.64999962  52.19999695
C     4.75000000  17.63000107  52.83000183
H     4.40878344  17.05898476  51.96651459
H     9.27999973  17.09000015  50.50000000
H    10.39999962  15.80999947  55.13000107
H     8.15999985  16.17000008  55.77999878
H     5.80999947  16.65999985  55.25000000
H     6.94999981  17.73999977  51.24000168
H    15.36999893  16.81999969  51.31999969
H     4.03999996  17.43000031  53.63999939
H     4.75000000  18.71999931  52.72999573
S    15.75000000  15.69000053  55.83000183
C    18.45000076  15.21000004  55.06999969
C    17.20000076  15.67000008  54.75999832
C    16.86000061  16.05999947  53.47000122
C    17.73999977  16.00000000  52.36999893
C    19.03000069  15.50000000  52.62000275
C    20.03999901  15.44999981  51.65000153
C    21.31999969  15.13000011  51.95000076
C    21.64999962  14.75000000  53.29000092
C    20.75000000  14.68999958  54.27999878
C    19.40999985  15.11000061  53.97999573
C    15.40999985  16.29999924  53.34999847
C    14.70000076  15.90999985  54.47000122
C    13.31999969  15.84000015  54.50000000
C    23.02000046  14.51000023  53.67000198
H    23.18144417  14.89893723  54.67536926
H    18.64999962  14.73999977  56.03000259
H    17.46000099  16.23999977  51.33999634
H    19.79999924  15.93999958  50.70999908
H    22.10000038  15.25000000  51.20999908
H    21.07999992  14.53999996  55.31000137
H    12.86000061  15.72000027  55.47000122
H    23.68000031  15.03999901  52.97000122
H    23.35000038  13.47000027  53.59000397
