96

S    12.11999989  16.46999931  44.09999847
C     9.52000046  16.72999954  44.93000031
C    10.65999985  16.17000008  45.13999939
C    11.10999966  15.52999973  46.40999603
C    10.14000034  15.44999981  47.42000198
C     8.85999966  16.03000069  47.22999954
C     7.83999968  15.98999977  48.27000046
C     6.63000011  16.44000053  48.00000000
C     6.32999992  17.06999969  46.70999908
C     7.31999969  17.34000015  45.79000092
C     8.55000019  16.69999886  46.00000000
C    12.53000069  15.31000042  46.45000076
C    13.19000053  15.77000046  45.27999878
C    14.60999966  15.70000076  45.25000000
C     4.86000013  17.26000023  46.31000137
H     4.63310432  16.74948502  45.37405777
H     9.27999973  17.28999901  44.03999710
H    10.26000023  14.78999996  48.27999878
H     7.97999954  15.44999981  49.20999908
H     5.92000008  16.13999939  48.75999832
H     7.09999990  17.88999939  44.87999725
H    15.17000008  15.93000031  44.34999847
H     4.17000008  16.93000031  47.09999847
H     4.69999981  18.34000015  46.22000122
S    15.62000084  14.65000057  49.00000000
C    18.36000061  14.56999969  48.39000320
C    17.05000114  14.89999962  48.02000046
C    16.72000122  15.32999992  46.69000244
C    17.73999977  15.60999966  45.81999969
C    19.06999969  15.18000031  46.09000397
C    20.17999840  15.38000011  45.17000198
C    21.47000122  14.94999981  45.48999786
C    21.68999863  14.09999943  46.65999985
C    20.65000153  14.01999950  47.54000092
C    19.34999847  14.52000046  47.34000397
C    15.31000042  15.32999992  46.45000076
C    14.60999966  15.01000023  47.57999802
C    13.26000023  15.01000023  47.63000107
C    23.11000061  13.81000042  47.08000183
H    23.44438362  14.48573399  47.86719513
H    18.67000008  14.04000092  49.27999878
H    17.50000000  16.03000069  44.85000229
H    19.95000076  15.85999966  44.22999954
H    22.29000092  15.14000034  44.80999756
H    20.94000053  13.68999958  48.53000259
H    12.69999981  15.03000069  48.55999756
H    23.82999802  13.88000011  46.25999832
H    23.12000084  12.75000000  47.36999893
S    11.73999977  16.06999969  50.72000122
C     9.09000015  16.54999924  51.47999573
C    10.36000061  16.21999931  51.81999969
C    10.72999954  15.98000050  53.16999817
C     9.76000023  16.01000023  54.20000076
C     8.43000031  16.36999893  53.85000229
C     7.44000006  16.34000015  54.85000229
C     6.11000013  16.52000046  54.34999847
C     5.73999977  16.87000084  52.95999908
C     6.76999998  16.95000076  52.04000092
C     8.07999992  16.64999962  52.43000031
C    12.15000057  15.88000107  53.27999878
C    12.84000015  16.09000015  52.08000183
C    14.25000000  16.13000107  51.93000031
C     4.33999968  17.05999947  52.63999939
H     4.11136580  16.80993080  51.60400009
H     8.78000069  17.01000023  50.54999924
H    10.01000023  15.85999966  55.25000000
H     7.71000004  15.85000038  55.79000092
H     5.26999998  16.39999962  55.02999878
H     6.61000013  17.20000076  51.00000000
H    14.70999908  16.27000046  50.94999695
H     3.68999982  16.56999969  53.37999725
H     4.07999992  18.11000061  52.81999969
S    15.50000000  15.22999954  55.54000092
C    18.19000053  15.17000008  54.87999725
C    16.90999985  15.44000053  54.51000214
C    16.57999992  15.78999996  53.18999863
C    17.61000061  15.90000057  52.32999802
C    18.88000107  15.42000008  52.61000061
C    19.88000107  15.31000042  51.60999680
C    21.19999886  14.96999931  51.90000153
C    21.52000046  14.60000038  53.25000000
C    20.48999977  14.60000038  54.23999786
C    19.19000053  15.05000019  53.95000076
C    15.06000042  15.88000107  53.06000137
C    14.39000034  15.77000046  54.29000092
C    12.98999977  15.73999977  54.40000153
C    22.95000076  14.19000053  53.63999939
H    23.13714218  14.47071266  54.67647552
H    18.44000053  14.85000038  55.89000320
H    17.40999985  16.17000008  51.29000092
H    19.63999939  15.75000000  50.63999939
H    21.98999786  15.03999901  51.16000366
H    20.75000000  14.34999943  55.27000046
H    12.48999977  15.72999954  55.35999680
H    23.61000061  14.52999973  52.84000015
H    23.05000114  13.09999943  53.60000229
