96

S    11.90999985  16.87999916  44.34000015
C     9.22999954  17.17000008  45.06000137
C    10.46000004  16.63999939  45.40000153
C    10.80999947  16.26000023  46.72000122
C     9.88000011  16.26000023  47.69000244
C     8.59000015  16.73999977  47.41000366
C     7.49000025  16.73999977  48.36000061
C     6.25000000  17.21999931  48.11000061
C     5.98999977  17.71999931  46.81999969
C     6.97000027  17.81999969  45.86999893
C     8.23999977  17.25000000  46.09000397
C    12.27000046  16.21000099  46.84999847
C    12.97000027  16.60000038  45.68000031
C    14.42000008  16.54999924  45.66999817
C     4.55000019  18.01000023  46.38000107
H     4.34484196  17.54497528  45.41576004
H     9.13999939  17.64999962  44.09000015
H    10.14999962  15.98000050  48.69999695
H     7.76000023  16.38000107  49.36000061
H     5.51000023  17.21999931  48.89999771
H     6.77999973  18.15000153  44.85000229
H    14.93999958  16.72000122  44.72999954
H     3.88000011  17.53999901  47.09999847
H     4.40000010  19.10000038  46.37000275
S    15.53999996  15.26000023  49.31000137
C    18.06999969  14.63000107  48.30999756
C    16.86000061  15.26000023  48.16999817
C    16.54999924  15.90000057  46.91999817
C    17.53999901  15.98000050  45.97000122
C    18.78999901  15.39999962  46.17000198
C    19.85000038  15.65999985  45.21999741
C    21.17000198  15.19000053  45.44000244
C    21.47999954  14.51000023  46.66999817
C    20.43000031  14.27000046  47.58999634
C    19.07999992  14.73999977  47.35000229
C    15.14000034  16.17000008  46.81000137
C    14.39000034  15.82999992  48.02999878
C    12.94999981  15.88999939  48.04999924
C    22.84000015  14.09000015  47.16999817
H    23.15096092  14.57371616  48.09597015
H    18.37000084  14.27000046  49.27999878
H    17.30999947  16.26000023  44.93999863
H    19.48999977  16.27000046  44.40000153
H    21.87000084  15.29000092  44.61000061
H    20.65999985  13.83999920  48.55999756
H    12.39999962  15.60999966  48.93000031
H    23.65999985  14.27999973  46.46999741
H    22.84000015  13.00000000  47.27000427
S    12.03999996  17.12000084  50.90000153
C     9.28999996  17.50000000  51.56999969
C    10.54999924  16.95999908  51.81999969
C    10.86999989  16.54000092  53.16999817
C     9.85999966  16.44000053  54.13000107
C     8.53999996  16.82999992  53.88000107
C     7.40000010  16.82999992  54.77000427
C     6.15000010  17.34000015  54.40000153
C     5.97000027  17.98999977  53.18000031
C     7.00000000  18.04999924  52.35000229
C     8.27999973  17.46000099  52.56999969
C    12.32999992  16.47999954  53.34999847
C    13.09999943  16.68000031  52.21000290
C    14.47999954  16.67000008  52.12999725
C     4.65999985  18.36000061  52.62000275
H     4.18114328  17.58096504  52.02679062
H     9.06999969  18.02999878  50.65000153
H    10.14999962  15.95999908  55.06000137
H     7.53999996  16.52000046  55.80999756
H     5.28999996  17.47999954  55.05000305
H     6.86999989  18.42000008  51.33999634
H    15.03999901  16.90999985  51.23000336
H     4.01999998  18.57999992  53.48999786
H     4.69999981  19.31999969  52.08000183
S    15.51000023  15.95999908  55.94999695
C    18.09000015  15.13000011  55.24000168
C    16.87000084  15.64000034  54.92000198
C    16.54000092  16.04999924  53.54000092
C    17.48999977  16.11999893  52.57999802
C    18.81000137  15.67000008  52.90999985
C    19.82999992  15.65000057  51.86999893
C    21.05999947  15.19999981  52.15999985
C    21.38000107  14.84000015  53.48999786
C    20.43999863  14.81999969  54.52000046
C    19.05999947  15.25000000  54.27999878
C    15.11999989  16.32999992  53.30999756
C    14.40999985  16.25000000  54.51000214
C    13.05999947  16.43000031  54.58000183
C    22.76000023  14.42000008  53.87000275
H    22.99095535  14.91077614  54.81546402
H    18.31999969  14.88999939  56.26999664
H    17.13999939  16.31000137  51.56999969
H    19.56999969  15.95999908  50.86000061
H    21.94999886  15.13000011  51.52999878
H    20.76000023  14.57999992  55.52999878
H    12.64000034  16.43000031  55.58000183
H    23.40999985  14.73000050  53.04000092
H    22.81999969  13.32999992  53.89999771
