96

S    12.15999985  16.87999916  44.33000183
C     9.55000019  17.46999931  45.19000244
C    10.72999954  16.88999939  45.40999985
C    11.02000046  16.22999954  46.70999908
C    10.00000000  16.03999901  47.65999603
C     8.71000004  16.55999947  47.39999771
C     7.63999987  16.46999931  48.34000015
C     6.38999987  16.98999977  47.95999908
C     6.14000034  17.60000038  46.68000031
C     7.16000032  17.64999962  45.72999954
C     8.51000023  17.28999901  46.10000229
C    12.46000099  16.29999924  46.88000107
C    13.17999935  16.47999954  45.63000107
C    14.56999969  16.43000031  45.54999924
C     4.74000025  18.12999916  46.43000031
H     4.29946470  17.59156609  45.59088135
H     9.31999969  18.09999847  44.33000183
H    10.26999950  15.50000000  48.55999756
H     7.81000042  15.90999985  49.25000000
H     5.59999990  16.79999924  48.68000031
H     6.96000004  18.06999969  44.75000000
H    15.05000019  16.46999931  44.58000183
H     4.11000013  17.98999977  47.31999969
H     4.67999983  19.19000053  46.13999939
S    15.69000053  15.24000072  49.20999908
C    18.35000038  14.93000031  48.30999756
C    17.04000092  15.31000042  48.04000092
C    16.70999908  15.93999958  46.81000137
C    17.73999977  15.97000027  45.83000183
C    19.03000069  15.48999977  45.97000122
C    20.02000046  15.59000015  45.00000000
C    21.28000069  15.15999985  45.24000168
C    21.67000008  14.75999928  46.56999969
C    20.69000053  14.85999966  47.57999802
C    19.34000015  15.03999901  47.29999924
C    15.34999943  16.18000031  46.66999817
C    14.68000031  15.82999992  47.90000153
C    13.26000023  15.93000031  47.97999954
C    23.08000183  14.56999969  46.95999908
H    23.17406273  14.99689674  47.95850372
H    18.54999924  14.51000023  49.29999924
H    17.40999985  16.36000061  44.86999893
H    19.84000015  16.21999931  44.13000107
H    22.03000069  15.36000061  44.47999954
H    20.95999908  14.65000057  48.61000061
H    12.71000004  15.59000015  48.85000229
H    23.75999832  15.11999989  46.29000092
H    23.29000092  13.50000000  46.97000122
S    15.39999962  12.86000061  52.48000336
C    18.06999969  12.30999947  51.65000153
C    16.72999954  12.30000019  51.38999939
C    16.21999931  12.07999992  50.06000137
C    17.05999947  11.51999950  49.10999680
C    18.47999954  11.42000008  49.38999939
C    19.43000031  11.02000046  48.36999893
C    20.72000122  10.95000076  48.69999695
C    21.21999931  11.39999962  50.00000000
C    20.32999992  11.82999992  51.00999832
C    18.94000053  11.84000015  50.68000031
C    14.78999996  12.30000019  49.93999863
C    14.21000004  12.84000015  51.14999771
C    12.88000011  13.17999935  51.27999878
C    22.70000076  11.26999950  50.28999710
H    22.99659157  11.76431942  51.21508026
H    18.44000053  12.69999981  52.58999634
H    16.57999992  11.02000046  48.27000046
H    19.04000092  10.72000027  47.41000366
H    21.35000038  10.47000027  47.95000076
H    20.65999985  12.18999958  51.98999786
H    12.51999950  13.59000015  52.22000122
H    22.88000107  10.19000053  50.27000046
H    23.15999985  11.72999954  49.40000153
S    11.44000053  12.61999989  47.62000275
C     8.78999996  12.81999969  48.53000259
C    10.08999920  12.89999962  48.75000000
C    10.57999992  13.21000004  50.04000092
C     9.72000027  13.56999969  51.06999969
C     8.36000061  13.47000027  50.86999893
C     7.44999981  14.01999950  51.81999969
C     6.05000019  14.09999943  51.46999741
C     5.63000011  13.82999992  50.14999771
C     6.51999998  13.34000015  49.25000000
C     7.88999987  13.12000084  49.54999924
C    12.02999973  13.07999992  50.12000275
C    12.61000061  12.67000008  48.94000244
C    13.93000031  12.15000057  48.81999969
C     4.28000021  14.09000015  49.61999893
H     4.21338844  13.80875206  48.56901550
H     8.28999996  12.68000031  47.57999802
H    10.14000034  14.13000011  51.88999939
H     7.88000011  14.56999969  52.65999603
H     5.28999996  14.47999954  52.15000153
H     6.19999981  13.23999977  48.20999908
H    14.30999947  11.69999981  47.90999985
H     4.00000000  15.14999962  49.56999969
H     3.67000008  13.53000069  50.34000015
