96

S    12.43000031  16.67000008  44.23999786
C     9.73999977  17.04000092  45.06999969
C    11.03000069  16.61999893  45.31000137
C    11.31999969  16.13999939  46.63000107
C    10.39000034  16.11999893  47.65999603
C     9.07999992  16.57999992  47.41000366
C     8.00000000  16.54999924  48.37999725
C     6.76999998  17.12000084  48.06999969
C     6.44000006  17.48999977  46.73999786
C     7.40000010  17.45000076  45.80999756
C     8.69999981  17.00000000  46.05999756
C    12.76000023  15.90000057  46.73999786
C    13.43000031  16.13999939  45.56000137
C    14.77000046  16.14999962  45.54999924
C     5.03999996  17.69000053  46.36000061
H     4.73868561  17.07302284  45.51345062
H     9.50000000  17.45000076  44.09000015
H    10.67999935  15.65999985  48.60000229
H     8.23999977  16.10999870  49.34999847
H     6.02999973  17.13999939  48.86000061
H     7.23999977  17.87999916  44.82999802
H    15.21000004  16.20000076  44.54999924
H     4.33999968  17.56999969  47.19999695
H     4.99000025  18.70000076  45.93000031
S    15.95999908  15.29999924  49.18000031
C    18.70000076  14.93999958  48.34000015
C    17.39999962  15.39000034  48.09999847
C    17.04000092  15.69000053  46.79999924
C    17.97999954  15.88000107  45.76000214
C    19.31999969  15.52999973  46.04999924
C    20.27000046  15.47999954  44.99000168
C    21.60000038  15.11999989  45.25000000
C    21.94000053  14.75000000  46.55000305
C    20.97999954  14.65999985  47.56000137
C    19.63999939  15.05000019  47.36000061
C    15.54999924  15.85000038  46.65000153
C    14.81999969  15.62999916  47.78999710
C    13.45000076  15.77000046  47.88999939
C    23.38000107  14.27999973  46.93000031
H    23.59787941  14.62860584  47.93950653
H    19.01000023  14.61999989  49.33000183
H    17.77000046  16.17000008  44.73999786
H    19.97999954  15.73999977  43.97999573
H    22.34999847  15.11000061  44.47000122
H    21.21000099  14.22999954  48.52000427
H    12.94000053  15.70000076  48.83999634
H    24.07999992  14.60999966  46.14999771
H    23.36999893  13.19000053  47.02999878
S    16.06999969  12.55000019  52.23999786
C    18.73999977  12.28999996  51.35000229
C    17.40999985  12.28999996  51.06999969
C    16.95000076  11.92999935  49.78000259
C    17.87999916  11.64000034  48.75999832
C    19.23999977  11.56000042  49.05000305
C    20.23999977  11.06999969  48.13999939
C    21.54999924  11.09000015  48.43000031
C    21.98999786  11.39000034  49.75000000
C    21.07000160  11.73999977  50.72000122
C    19.70000076  11.90000057  50.38000107
C    15.52000046  12.02000046  49.69999695
C    14.93000031  12.36999989  50.93999863
C    13.57999992  12.76000023  51.11000061
C    23.32999992  10.88000107  50.22999573
H    23.62131500  11.25657749  51.21051788
H    19.04999924  12.55000019  52.36000061
H    17.46999931  11.31000042  47.81000137
H    19.85000038  10.75000000  47.18000031
H    22.29000092  10.60999966  47.80000305
H    21.38999939  11.73999977  51.76000214
H    13.17000008  13.07000065  52.05999756
H    23.42000008   9.80000019  50.06000137
H    24.14999962  11.18000031  49.56999969
S    12.10000038  12.32999992  47.35000229
C     9.51000023  12.77999973  48.26000214
C    10.82999992  12.58999920  48.53000259
C    11.36000061  12.75000000  49.89999771
C    10.47000027  13.09999943  50.97000122
C     9.15999985  13.42000008  50.65999985
C     8.30000019  13.81999969  51.69000244
C     6.93000031  14.04000092  51.42000198
C     6.40999985  13.80000019  50.07999802
C     7.21000004  13.32999992  49.08000183
C     8.60999966  13.22999954  49.27999878
C    12.82999992  12.58999920  49.95999908
C    13.40000057  12.25000000  48.66000366
C    14.73999977  11.95000076  48.52000427
C     4.96000004  14.06000042  49.86000061
H     4.64894533  13.88225460  48.83055878
H     9.15999985  12.61000061  47.25000000
H    10.81999969  12.98999977  51.98999786
H     8.63000011  13.94999981  52.71999741
H     6.28000021  14.48999977  52.15999985
H     6.75000000  12.93000031  48.18000031
H    15.22999954  11.71000004  47.57999802
H     4.65999985  15.06999969  50.15999603
H     4.42000008  13.26000023  50.38000107
