96

S    12.43999958  16.87999916  44.18000031
C     9.76000023  17.19000053  44.75999832
C    11.03999996  16.90000153  45.20999908
C    11.35000038  16.62999916  46.56999969
C    10.27999973  16.55999947  47.50000000
C     8.98999977  16.92000008  47.01000214
C     7.83999968  16.62999916  47.77999878
C     6.57999992  16.95999908  47.38999939
C     6.38999987  17.50000000  46.07999802
C     7.48000050  17.64999962  45.21999741
C     8.73999977  17.26000023  45.66999817
C    12.79999924  16.52000046  46.77999878
C    13.48999977  16.47999954  45.54999924
C    14.86999989  16.32999992  45.45999908
C     5.05000019  17.94000053  45.63000107
H     4.72064495  17.42448807  44.72785187
H     9.68999958  17.46000099  43.69999695
H    10.34999943  16.06999969  48.47000122
H     8.05999947  15.97000027  48.61999893
H     5.73000002  16.79999924  48.06000137
H     7.48000050  18.06999969  44.22000122
H    15.31999969  16.21000099  44.47000122
H     4.38000011  17.79999924  46.49000168
H     5.17000008  19.01000023  45.44000244
S    15.95999908  16.01000023  49.36000061
C    18.52000046  15.26000023  48.66000366
C    17.31999969  15.77999973  48.30999756
C    17.00000000  16.15999985  46.97999954
C    17.98999977  16.17000008  46.02000427
C    19.31999969  15.81999969  46.36000061
C    20.38000107  15.73999977  45.45000076
C    21.61999893  15.34999943  45.75000000
C    21.83000183  14.84000015  47.06999969
C    20.81000137  14.85000038  47.97000122
C    19.55000114  15.31999969  47.68000031
C    15.62999916  16.34000015  46.69000244
C    14.92000008  16.29999924  47.97999954
C    13.45999908  16.38000107  47.97000122
C    23.13999939  14.14000034  47.50999832
H    23.53666687  14.69672394  48.35900497
H    18.71000099  14.80999947  49.62999725
H    17.78000069  16.46999931  44.99000168
H    20.06000137  15.95999908  44.43999863
H    22.37999916  15.39000034  44.98000336
H    21.01000023  14.47000027  48.96999741
H    12.89999962  16.29999924  48.89999771
H    23.85999870  14.19000053  46.68000031
H    23.08000183  13.07000065  47.75000000
S    11.52999973  17.45000076  50.98999786
C     8.73999977  17.51000023  51.52999878
C    10.05000019  17.34000015  51.93999863
C    10.40999985  17.07999992  53.27999878
C     9.39999962  16.93000031  54.22999954
C     8.00000000  17.14999962  53.95999908
C     6.98000002  17.28999901  54.91000366
C     5.66999960  17.69000053  54.52999878
C     5.36999989  17.76000023  53.16999817
C     6.34999990  17.70000076  52.18000031
C     7.69000006  17.46000099  52.56999969
C    11.80999947  16.77000046  53.47000122
C    12.56999969  17.06999969  52.30999756
C    14.01000023  17.12000084  52.12999725
C     3.89999986  17.86999893  52.78999710
H     3.63330007  17.33660126  51.87760544
H     8.38000011  17.69000053  50.52000046
H     9.71000004  16.64999962  55.22999573
H     7.23000002  17.26000023  55.97000122
H     4.90000010  17.86000061  55.27000046
H     6.09000015  17.77000046  51.11999893
H    14.55000019  17.15999985  51.19999695
H     3.15000010  17.68000031  53.55999756
H     3.86000013  18.95000076  52.63000107
S    14.78999996  15.93999958  55.81999969
C    17.52000046  15.52000046  55.19000244
C    16.28000069  16.03999901  54.82999802
C    16.07999992  16.55999947  53.48999786
C    17.26000023  16.65999985  52.65999603
C    18.48999977  16.11999893  53.02000046
C    19.54000092  16.11999893  52.06999969
C    20.69000053  15.57000065  52.43000031
C    20.88000107  14.84000015  53.59000397
C    19.85000038  14.78000069  54.47999954
C    18.57999992  15.48999977  54.26000214
C    14.67000008  16.84000015  53.30999756
C    13.89999962  16.39000130  54.43000031
C    12.50000000  16.46000099  54.58000183
C    22.25000000  14.30999947  54.02999878
H    22.63531113  14.68155003  54.97951889
H    17.60000038  14.91000080  56.07999802
H    17.06999969  17.05000114  51.66999817
H    19.29999924  16.60000038  51.11999893
H    21.54000092  15.62999916  51.75000000
H    19.95000076  14.21000004  55.40000153
H    12.13999939  16.50000000  55.59999847
H    22.88999939  14.63999939  53.20000076
H    22.14999962  13.21000004  54.05000305
