96

S    11.89000034  16.46999931  44.18000031
C     9.35000038  16.88999939  45.07999802
C    10.59999943  16.60000038  45.38000107
C    11.06999969  16.17000008  46.70999908
C    10.03999901  16.03999901  47.63999939
C     8.71999931  16.40999985  47.32999802
C     7.72000027  16.44000053  48.34000015
C     6.46000004  16.87999916  47.95999908
C     6.10000038  17.35999870  46.68000031
C     7.07000017  17.35999870  45.73999786
C     8.34000015  16.87000084  46.02000427
C    12.48999977  15.93000031  46.72000122
C    13.04999924  16.06999969  45.38999939
C    14.46000004  16.09000015  45.25000000
C     4.69000006  17.77000046  46.25999832
H     4.33958101  17.12522888  45.45403671
H     9.19000053  17.31999969  44.09000015
H    10.19999981  15.62000084  48.62999725
H     7.77999973  15.95000076  49.31000137
H     5.58000040  16.76000023  48.57999802
H     6.84000015  17.81999969  44.78000259
H    14.92000008  16.35000038  44.29999924
H     4.05999994  17.68000031  47.15000153
H     4.61000013  18.78999901  45.86000061
S    15.81999969  15.32999992  48.86000061
C    18.46999931  15.24000072  48.15999985
C    17.21999931  15.46000004  47.77999878
C    16.79000092  15.72000027  46.39999771
C    17.71999931  15.65000057  45.38999939
C    19.04999924  15.36000061  45.80999756
C    20.06000137  15.15999985  44.81999969
C    21.31999969  14.65000057  45.13999939
C    21.83000183  14.60000038  46.47999573
C    20.86000061  14.93999958  47.50000000
C    19.47999954  15.21999931  47.18999863
C    15.26999950  15.80000019  46.31000137
C    14.68000031  15.62999916  47.57999802
C    13.30999947  15.65000057  47.74000168
C    23.31999969  14.50000000  46.79000092
H    23.40623856  14.36345673  47.86796951
H    18.53999901  14.84000015  49.16999817
H    17.38999939  15.71000004  44.34999847
H    19.80999947  15.48999977  43.81999969
H    21.97000122  14.28999996  44.34999847
H    21.14000130  14.80000019  48.54000092
H    12.88000011  15.48999977  48.73000336
H    23.88000107  15.39000034  46.51000214
H    23.81999969  13.67000008  46.26999664
S    11.87000084  16.81999969  50.94999695
C     9.22000027  17.02000046  51.56999969
C    10.46000004  16.65999985  51.91999817
C    10.72999954  16.44000053  53.27999878
C     9.72000027  16.38000107  54.22999954
C     8.38000011  16.53000069  53.86000061
C     7.26999998  16.57999992  54.78000259
C     6.03999996  16.97000122  54.34000015
C     5.82999992  17.35999870  53.01000214
C     6.88000011  17.35999870  52.15000153
C     8.11999989  16.92000008  52.50000000
C    12.15999985  16.34000015  53.52000427
C    12.93000031  16.56999969  52.31999969
C    14.27999973  16.62999916  52.32999802
C     4.51999998  17.93000031  52.60000229
H     4.05776215  17.44096565  51.74251556
H     9.03999996  17.46999931  50.59000015
H    10.05000019  16.28999901  55.26000214
H     7.37999964  16.46999931  55.84999847
H     5.18000031  17.05999947  55.00000000
H     6.89000034  17.94000053  51.23000336
H    14.80999947  16.54999924  51.38000107
H     3.82999992  17.82999992  53.43999863
H     4.63999987  19.01000023  52.44999695
S    15.19999981  15.39999962  56.03000259
C    17.95999908  15.03999901  55.34999847
C    16.70999908  15.50000000  55.05000305
C    16.42000008  16.05999947  53.74000168
C    17.30999947  15.98000050  52.76000214
C    18.60999870  15.47999954  53.00000000
C    19.59000015  15.19999981  52.00000000
C    20.76000023  14.46000004  52.27000427
C    21.02999878  14.06000042  53.62999725
C    20.17999840  14.34999943  54.61999893
C    18.95000076  14.98000050  54.34999847
C    14.94999981  16.39000130  53.61999893
C    14.19000053  15.95999908  54.72000122
C    12.81999969  16.00000000  54.68999863
C    22.44999886  13.60000038  54.06999969
H    22.88769913  14.27391720  54.80644608
H    18.29000092  14.68000031  56.31999969
H    17.06999969  16.18000031  51.72000122
H    19.40999985  15.51000023  50.97000122
H    21.47000122  14.26000023  51.47999573
H    20.30999947  14.09000015  55.66999817
H    12.22000027  15.77999973  55.56000137
H    23.03999901  13.35000038  53.18000031
H    22.29000092  12.56000042  54.40000153
