96

S    11.76000023  16.54000092  44.01000214
C     9.10000038  17.01000023  44.68000031
C    10.34000015  16.46000099  45.07999802
C    10.65000057  16.03999901  46.42000198
C     9.64999962  16.00000000  47.34000397
C     8.34999943  16.53000069  46.97999954
C     7.36000013  16.61999893  47.94000244
C     6.14000034  17.13000107  47.62000275
C     5.86000013  17.71000099  46.37000275
C     6.89000034  17.82999992  45.47000122
C     8.09000015  17.05000114  45.68000031
C    12.11999989  15.98000050  46.63000107
C    12.79999924  16.18000031  45.38999939
C    14.18000031  16.39000130  45.26000214
C     4.46000004  18.01000023  45.97000122
H     4.22913361  17.34538460  45.13748169
H     8.96000004  17.43999863  43.68999863
H     9.89000034  15.55999947  48.29999924
H     7.48000050  16.20000076  48.93000031
H     5.38999987  16.88999939  48.36999893
H     6.78999996  18.38000107  44.54000092
H    14.77000046  16.81999969  44.45999908
H     3.79999995  17.85000038  46.83000183
H     4.36999989  19.05999947  45.68000031
S    15.43000031  15.57000065  48.97999573
C    18.15999985  15.19000053  48.00000000
C    16.82999992  15.47000027  47.78999710
C    16.45000076  15.85000038  46.45000076
C    17.43000031  15.92000008  45.40000153
C    18.76000023  15.65000057  45.65000153
C    19.81999969  15.67000008  44.72999954
C    21.14999962  15.36000061  45.10000229
C    21.45000076  14.77000046  46.39999771
C    20.39999962  14.70000076  47.36000061
C    19.11000061  15.19999981  47.00000000
C    14.96999931  16.10000038  46.40999603
C    14.26000023  15.93999958  47.68000031
C    12.86999893  15.97000027  47.77999878
C    22.86999893  14.51000023  46.88999939
H    23.03429222  14.76328278  47.93735504
H    18.48999977  14.88000011  48.99000168
H    17.02999878  16.15999985  44.41999817
H    19.59000015  16.07999992  43.75000000
H    21.98999786  15.57999992  44.43999863
H    20.50000000  14.34999943  48.39000320
H    12.42000008  15.88000107  48.76999664
H    23.57999992  15.06000042  46.25999832
H    23.02999878  13.43000031  46.84000015
S    11.39000034  16.95000076  50.87999725
C     8.78999996  17.39999962  51.70000076
C    10.01999950  17.09000015  51.97999954
C    10.38000011  16.73999977  53.31999969
C     9.39999962  16.82999992  54.25000000
C     8.06999969  17.13000107  54.00000000
C     7.03000021  17.07999992  54.93999863
C     5.73999977  17.43999863  54.59999847
C     5.40999985  17.76000023  53.22999954
C     6.39999962  17.73999977  52.27000427
C     7.76000023  17.45000076  52.64999771
C    11.82000065  16.50000000  53.48999786
C    12.51999950  16.56999969  52.25000000
C    13.94000053  16.69999886  52.23999786
C     3.88999987  17.98999977  52.87000275
H     3.60781240  17.53574753  51.92020035
H     8.39999962  17.59000015  50.70000076
H     9.81000042  16.63999939  55.24000168
H     7.27999973  16.61000061  55.89000320
H     4.99000025  17.38000107  55.38000107
H     6.19000006  17.71000099  51.19999695
H    14.42999935  16.95999908  51.30000305
H     3.17000008  17.67000008  53.63999939
H     3.81000018  19.05999947  52.69000244
S    15.07999992  16.27000046  56.02000427
C    17.81999969  16.04999924  55.20999908
C    16.46999931  16.28000069  54.87999725
C    16.13999939  16.60000038  53.55999756
C    17.10000038  16.76000023  52.57999802
C    18.45999908  16.44000053  52.97000122
C    19.47999954  16.36999893  51.93000031
C    20.79999924  15.95000076  52.18000031
C    21.18999863  15.48999977  53.48999786
C    20.20999908  15.52000046  54.47000122
C    18.85000038  16.00000000  54.22000122
C    14.70000076  16.54999924  53.41999817
C    13.88000011  16.36000061  54.65000153
C    12.50000000  16.36999893  54.68999863
C    22.53999901  15.14999962  53.88999939
H    22.87977219  15.56929111  54.83702087
H    18.17000008  15.78999996  56.20999908
H    16.80999947  16.97000122  51.56000137
H    19.23999977  16.53000069  50.89000320
H    21.53000069  15.84000015  51.38999939
H    20.40999985  15.03000069  55.41999817
H    11.96000004  16.44000053  55.63000107
H    23.12999916  15.59000015  53.08000183
H    22.67999840  14.06000042  53.88999939
