96

S    12.20999908  16.90999985  44.09000015
C     9.55999947  17.56999969  44.93999863
C    10.76000023  16.92000008  45.19000244
C    11.09000015  16.40999985  46.47999573
C    10.10000038  16.44000053  47.45999908
C     8.82000065  16.90999985  47.18000031
C     7.76999998  16.67000008  48.08000183
C     6.51000023  17.19000053  47.85999680
C     6.25999975  17.84000015  46.63000107
C     7.26999998  17.98999977  45.75000000
C     8.56000042  17.46999931  45.94999695
C    12.53000069  16.21000099  46.59000015
C    13.27999973  16.31999969  45.37000275
C    14.63999939  16.28999901  45.33000183
C     4.86000013  18.27000046  46.18000031
H     4.55814648  17.63821220  45.34463882
H     9.38000011  18.18000031  44.06000137
H    10.17000008  15.78999996  48.33000183
H     7.97999954  16.17000008  49.02000046
H     5.72000027  17.26000023  48.59000397
H     7.14999962  18.37000084  44.73999786
H    15.14000034  16.38000107  44.36999893
H     4.09999990  18.12000084  46.95000076
H     5.00000000  19.30999947  45.86999893
S    15.73999977  15.57999992  49.13000107
C    18.42000008  15.29000092  48.36999893
C    17.13999939  15.57999992  48.04999924
C    16.79000092  15.88999939  46.70999908
C    17.78000069  15.90000057  45.72999954
C    19.04999924  15.59999943  46.03000259
C    20.02000046  15.52000046  44.99000168
C    21.28000069  15.27999973  45.31000137
C    21.73000145  14.96999931  46.56999969
C    20.79000092  14.88000011  47.56999969
C    19.47000122  15.29000092  47.37999725
C    15.34999943  16.09000015  46.52000046
C    14.60999966  15.92000008  47.71999741
C    13.22999954  16.01000023  47.74000168
C    23.15999985  14.55999947  46.76000214
H    23.58175850  15.14900494  47.57442856
H    18.73999977  14.98000050  49.36000061
H    17.45000076  16.21999931  44.75000000
H    19.62000084  15.69000053  44.00000000
H    22.04999924  15.21999931  44.54999924
H    21.07000160  14.45000076  48.53000259
H    12.64000034  15.95999908  48.66000366
H    23.77000046  14.57999992  45.84999847
H    23.16999817  13.55000019  47.18000031
S    11.71000004  17.12000084  50.89000320
C     8.96000004  17.50000000  51.63000107
C    10.26000023  17.10000038  51.93999863
C    10.59000015  16.73999977  53.27999878
C     9.59999943  16.84000015  54.27999878
C     8.23000050  17.13999939  53.97999573
C     7.26000023  17.05999947  55.01999664
C     5.95000029  17.40999985  54.71000290
C     5.68000031  17.89999962  53.36000061
C     6.65999985  17.95999908  52.38999939
C     7.90999985  17.46999931  52.61000061
C    12.02999973  16.56999969  53.47999954
C    12.77999973  16.81999969  52.27000427
C    14.14999962  16.87000084  52.22000122
C     4.32000017  18.30000114  52.88000107
H     4.04823399  17.84228897  51.92882156
H     8.73000050  17.94999886  50.65999985
H     9.92000008  16.93000031  55.31999969
H     7.48000050  16.81999969  56.04999924
H     5.17000008  17.47999954  55.45999908
H     6.48999977  18.26000023  51.35000229
H    14.61999989  17.05000114  51.25999832
H     3.51000023  18.15999985  53.61999893
H     4.33999968  19.38999939  52.78999710
S    15.21999931  15.86999989  55.94999695
C    17.97999954  15.54999924  55.25000000
C    16.68000031  15.95000076  54.89999771
C    16.28999901  16.23999977  53.55999756
C    17.32999992  16.53000069  52.63999939
C    18.67000008  16.07999992  52.90000153
C    19.71999931  16.13000107  51.88999939
C    21.02000046  15.76000023  52.15999985
C    21.28999901  15.17000008  53.46000290
C    20.29999924  15.17000008  54.45000076
C    18.97999954  15.57999992  54.20999908
C    14.88000011  16.48999977  53.36000061
C    14.15999985  16.25000000  54.59000015
C    12.79000092  16.31999969  54.64000320
C    22.67000008  14.57999992  53.82999802
H    23.00340271  15.04676533  54.75685883
H    18.22999954  15.14000034  56.23000336
H    17.05000114  16.95999908  51.69000244
H    19.40000153  16.45000076  50.90000153
H    21.83000183  15.75000000  51.44000244
H    20.55000114  14.88999939  55.47999954
H    12.32999992  16.31000137  55.63000107
H    23.40999985  14.75999928  53.04000092
H    22.65000153  13.48000050  53.77999878
