96

S    12.13999939  16.94000053  44.50000000
C     9.36999989  17.43999863  45.12000275
C    10.67999935  16.93000031  45.50000000
C    10.98000050  16.40999985  46.83000183
C     9.98000050  16.32999992  47.77000046
C     8.67000008  16.84000015  47.44999695
C     7.57000017  16.93000031  48.37999725
C     6.32000017  17.43999863  47.98999786
C     6.01000023  17.72999954  46.66999817
C     7.03999996  17.77000046  45.77000046
C     8.36999989  17.36999893  46.11000061
C    12.42000008  16.28999901  46.97000122
C    13.17000008  16.46000099  45.83000183
C    14.50000000  16.47999954  45.84999847
C     4.61000013  18.23999977  46.23000336
H     4.27425194  17.54707336  45.45849228
H     9.21000004  17.85000038  44.12000275
H    10.19000053  15.86999989  48.73000336
H     7.78999996  16.82999992  49.43999863
H     5.65000010  17.73999977  48.79000092
H     6.76000023  18.07999992  44.77000427
H    15.06999969  16.67000008  44.93999863
H     3.84999990  18.06999969  47.01000214
H     4.69000006  19.29000092  45.93999863
S    15.59000015  15.46000004  49.43999863
C    18.22999954  15.26999950  48.57999802
C    16.97999954  15.64000034  48.33000183
C    16.64999962  16.23999977  47.05999756
C    17.59000015  16.31000137  46.06999969
C    18.95000076  15.95000076  46.31000137
C    20.00000000  15.98999977  45.37000275
C    21.24000168  15.44000053  45.63000107
C    21.53000069  14.93999958  46.93000031
C    20.53999901  14.85999966  47.91999817
C    19.27000046  15.39999962  47.63999939
C    15.19999981  16.31999969  46.95999908
C    14.48999977  16.00000000  48.15000153
C    13.07000065  15.98000050  48.20999908
C    22.92000008  14.52000046  47.27000427
H    23.13727951  14.93419075  48.25455475
H    18.45999908  14.65000057  49.43999863
H    17.35000038  16.69000053  45.07999802
H    19.73999977  16.39999962  44.38999939
H    22.03000069  15.40999985  44.88999939
H    20.79000092  14.35999966  48.86000061
H    12.51999950  15.67000008  49.09999847
H    23.59999847  14.73999977  46.45000076
H    23.02000046  13.43999958  47.39999771
S    16.31999969  12.88000011  52.39999771
C    18.84000015  12.18000031  51.69000244
C    17.50000000  12.25999928  51.36000061
C    17.05000114  12.00000000  50.06999969
C    17.93000031  11.56999969  49.15000153
C    19.34000015  11.51000023  49.40999985
C    20.26000023  11.10999966  48.43000031
C    21.59000015  10.97000027  48.81000137
C    22.07999992  11.35000038  50.11000061
C    21.21999931  11.87999916  51.03000259
C    19.81999969  11.87999916  50.70000076
C    15.65000057  12.23000050  49.99000168
C    15.08999920  12.76999950  51.17000198
C    13.75000000  13.01000023  51.26999664
C    23.44000053  10.92000008  50.52999878
H    23.72841263  11.25888538  51.52502441
H    19.13999939  12.58999920  52.64999771
H    17.50000000  11.26999950  48.20000076
H    19.96000099  10.62999916  47.50000000
H    22.34000015  10.60999966  48.11000061
H    21.47999954  12.09000015  52.06999969
H    13.22999954  13.50000000  52.08000183
H    23.54999924   9.82999992  50.59000015
H    24.18000031  11.28000069  49.79000092
S    12.34000015  12.25000000  47.52999878
C     9.68999958  12.84000015  48.27999878
C    11.05000019  12.90999985  48.54999924
C    11.54999924  13.32999992  49.82999802
C    10.64000034  13.86999989  50.70999908
C     9.26000023  13.90999985  50.48999786
C     8.34000015  14.37999916  51.44000244
C     6.97000027  14.42999935  51.17000198
C     6.42000008  14.00000000  49.92000198
C     7.31999969  13.45000076  49.00000000
C     8.76000023  13.45999908  49.22999954
C    12.97999954  13.00000000  50.07999802
C    13.52000046  12.46999931  48.86000061
C    14.80999947  12.02000046  48.83999634
C     4.92999983  14.14999962  49.51000214
H     4.67962503  13.96400738  48.46557999
H     9.25000000  12.58999920  47.31999969
H    10.98999977  14.19000053  51.69000244
H     8.78000069  14.70000076  52.37999725
H     6.25999975  14.82999992  51.90000153
H     6.91999960  13.17999935  48.02000046
H    15.25000000  11.61000061  47.93000031
H     4.48999977  15.11000061  49.78000259
H     4.32999992  13.40999985  50.06000137
