96

S    11.95000076  16.52000046  44.47999954
C     9.38000011  17.13000107  45.22999573
C    10.57000065  16.53000069  45.52000046
C    10.84000015  16.13000107  46.90000153
C     9.82999992  16.27000046  47.85999680
C     8.59000015  16.72999954  47.52999878
C     7.59999990  16.93000031  48.52000427
C     6.34000015  17.42000008  48.18000031
C     6.07999992  17.71000099  46.84999847
C     7.11000013  17.78000069  45.94999695
C     8.34999943  17.20000076  46.19999695
C    12.32999992  16.03000069  47.04000092
C    13.04999924  16.18999863  45.81999969
C    14.42000008  16.32999992  45.72000122
C     4.69000006  17.92000008  46.31999969
H     4.47103596  17.34080505  45.42295456
H     9.19999981  17.46999931  44.20999908
H    10.06000042  16.15999985  48.92000198
H     7.88999987  16.65999985  49.52999878
H     5.50000000  17.42000008  48.87000275
H     6.90999985  18.22999954  44.98000336
H    14.92000008  16.57999992  44.79000092
H     3.93000007  17.86000061  47.11000061
H     4.61000013  18.95000076  45.93999863
S    15.54999924  15.42000008  49.36000061
C    18.12000084  14.98999977  48.52000427
C    16.94000053  15.47999954  48.25000000
C    16.64999962  16.02000046  46.97999954
C    17.67000008  16.14999962  46.07999802
C    18.96000099  15.62999916  46.40999603
C    19.96999931  15.71000004  45.48999786
C    21.21000099  15.17000008  45.72000122
C    21.47000122  14.60000038  46.98999786
C    20.48999977  14.55000019  47.90000153
C    19.20999908  15.01000023  47.64999771
C    15.19999981  16.26000023  46.86999893
C    14.48999977  16.00000000  48.09000015
C    13.12999916  15.92000008  48.16999817
C    22.86999893  14.11999893  47.36000061
H    23.12198257  14.72475529  48.23113632
H    18.37000084  14.52000046  49.47999954
H    17.61999893  16.69999886  45.13999939
H    19.78000069  16.28000069  44.58000183
H    21.91999817  15.01000023  44.92000198
H    20.79000092  14.15999985  48.87000275
H    12.56999969  15.78999996  49.09000015
H    23.47999954  14.39000034  46.49000168
H    22.70999908  13.03999996  47.50999832
S    11.92000008  17.47999954  51.02000427
C     9.22000027  17.78000069  51.76000214
C    10.50000000  17.43000031  52.04999924
C    10.81999969  16.90000153  53.34000015
C     9.88000011  16.77999878  54.27000046
C     8.56999969  17.30999947  54.06999969
C     7.55999994  17.28999901  55.05000305
C     6.30999994  17.63000107  54.73999786
C     5.96000004  18.19000053  53.47000122
C     6.98000002  18.36000061  52.54000092
C     8.27999973  17.82999992  52.78999710
C    12.27000046  16.69000053  53.48999786
C    12.94999981  17.00000000  52.27000427
C    14.32000065  16.90000153  52.21000290
C     4.53999996  18.45000076  53.08000183
H     4.17947578  17.82460022  52.26330185
H     8.92000008  18.27999878  50.84999847
H    10.14999962  16.38000107  55.25000000
H     7.78999996  16.69000053  55.93000031
H     5.58000040  17.50000000  55.52000046
H     6.63000011  18.71000099  51.56999969
H    14.88999939  17.00000000  51.29000092
H     3.93000007  18.34000015  53.99000168
H     4.46999979  19.51000023  52.78999710
S    15.42000008  15.98000050  55.90000153
C    18.12000084  15.42000008  55.21999741
C    16.90000153  15.95000076  54.92000198
C    16.51000023  16.46000099  53.55999756
C    17.51000023  16.43000031  52.58999634
C    18.89000130  16.14999962  52.97999954
C    19.96999931  16.13000107  52.02999878
C    21.19999886  15.59999943  52.42000198
C    21.50000000  15.05000019  53.66000366
C    20.45999908  15.06000042  54.59000015
C    19.13999939  15.55999947  54.27000046
C    15.05000019  16.65999985  53.36000061
C    14.35999966  16.43000031  54.58000183
C    12.98999977  16.39000130  54.65999985
C    22.86999893  14.61999989  54.02999878
H    23.29766083  15.15457630  54.87819290
H    18.34000015  14.88000011  56.13999939
H    17.31999969  16.55999947  51.52000046
H    19.77000046  16.48999977  51.02000427
H    22.07999992  15.77999973  51.81000137
H    20.76999855  14.81999969  55.59999847
H    12.43000031  16.23999977  55.58000183
H    23.55999947  14.82999992  53.20000076
H    22.86999893  13.53000069  54.10999680
