96

S    11.85999966  16.60000038  44.36000061
C     9.23999977  16.87999916  44.88999939
C    10.50000000  16.51000023  45.34999847
C    10.86999989  16.29999924  46.73999786
C     9.77000046  16.03000069  47.58999634
C     8.48999977  16.36999893  47.15999985
C     7.42999983  16.28999901  48.09000015
C     6.15999985  16.62999916  47.74000168
C     5.93999958  17.29999924  46.50000000
C     6.90000010  17.39999962  45.56999969
C     8.19999981  16.90000153  45.86000061
C    12.28999996  16.31000137  46.90999985
C    12.97999954  16.36999893  45.72999954
C    14.37000084  16.20000076  45.65999985
C     4.51999998  17.73999977  46.10000229
H     4.14772177  17.12642860  45.27961349
H     9.13000011  17.38999939  43.94000244
H     9.92999935  15.69000053  48.61000061
H     7.51999950  15.80999947  49.06000137
H     5.29999971  16.53000069  48.39000320
H     6.70000029  17.76000023  44.55999756
H    14.91000080  16.39000130  44.73999786
H     3.78999996  17.73999977  46.90999985
H     4.53999996  18.79999924  45.79999924
S    15.39000034  15.13000011  49.27999878
C    18.04999924  14.82999992  48.47000122
C    16.77999878  15.15999985  48.20999908
C    16.45000076  15.55999947  46.88999939
C    17.46000099  15.72000027  45.90999985
C    18.76000023  15.40999985  46.18999863
C    19.79999924  15.48999977  45.22999573
C    21.11000061  15.24000072  45.56999969
C    21.38999939  14.82999992  46.90999985
C    20.36999893  14.57999992  47.81999969
C    19.05999947  14.94999981  47.51999664
C    15.06000042  15.84000015  46.77000046
C    14.37000084  15.62999916  47.97000122
C    13.00000000  15.93999958  48.02000046
C    22.70999908  14.29999924  47.29000092
H    23.03502274  14.80166626  48.20147705
H    18.30000114  14.40000057  49.43999863
H    17.34000015  16.09000015  44.88999939
H    19.44000053  15.72000027  44.22999954
H    21.93000031  15.31000042  44.86000061
H    20.58000183  14.04999924  48.75000000
H    12.44999981  15.75000000  48.94000244
H    23.31999969  14.57999992  46.42000198
H    22.72999954  13.21000004  47.31999969
S    15.95999908  13.09000015  52.41000366
C    18.47999954  12.51000023  51.62000275
C    17.17000008  12.41000080  51.37000275
C    16.64999962  11.77999973  50.17000198
C    17.50000000  11.38000011  49.16999817
C    18.88000107  11.42000008  49.40999985
C    19.81999969  10.93000031  48.47000122
C    21.15999985  11.03999996  48.72000122
C    21.63999939  11.52999973  49.94999695
C    20.75000000  12.06999969  50.86999893
C    19.37000084  11.98999977  50.66999817
C    15.21999931  11.97999954  50.10000229
C    14.68999958  12.63000011  51.24000168
C    13.34000015  13.04999924  51.35000229
C    23.03999901  11.26000023  50.28999710
H    23.38956451  11.37156296  51.31637955
H    18.92000008  12.89999962  52.54000092
H    17.21999931  10.90000057  48.22999954
H    19.47999954  10.44000053  47.56000137
H    21.78999901  10.50000000  48.02000046
H    21.09999847  12.31999969  51.86999893
H    12.90999985  13.42000008  52.27000427
H    23.21000099  10.19999981  50.02999878
H    23.62999916  11.89000034  49.61999893
S    11.92000008  12.34000015  47.70000076
C     9.26999950  12.76999950  48.47000122
C    10.59999943  12.84000015  48.81000137
C    11.07999992  13.12999916  50.12000275
C    10.15999985  13.52000046  51.11999893
C     8.80000019  13.50000000  50.79999924
C     7.88000011  13.94999981  51.75000000
C     6.54999971  14.13000011  51.45000076
C     6.09000015  13.88000011  50.13000107
C     6.96000004  13.25000000  49.22999954
C     8.34000015  13.15999985  49.48999786
C    12.53000069  12.89999962  50.24000168
C    13.12000084  12.43999958  48.97999573
C    14.40000057  11.89000034  48.94000244
C     4.63000011  14.00000000  49.75000000
H     4.24544954  13.40180969  48.92393112
H     8.96000004  12.43000031  47.49000168
H    10.47000027  13.90999985  52.09000015
H     8.25000000  14.14999962  52.76000214
H     5.86999989  14.55999947  52.16999817
H     6.67999983  12.74000072  48.29999924
H    14.75000000  11.26999950  48.11999893
H     4.32999992  15.05000019  49.75000000
H     4.15999985  13.67000008  50.68000031
