96

S    12.13999939  17.04000092  43.95999908
C     9.50000000  17.17000008  44.75000000
C    10.77999973  16.86000061  45.01999664
C    11.05000019  16.38000107  46.35000229
C    10.14999962  16.26000023  47.31999969
C     8.78999996  16.65999985  47.06999969
C     7.79999971  16.54999924  48.08000183
C     6.43000031  16.77000046  47.69000244
C     6.10000038  17.04000092  46.33999634
C     7.05999947  17.21999931  45.41999817
C     8.47000027  17.02999878  45.68999863
C    12.51999950  16.29999924  46.52000046
C    13.25000000  16.70999908  45.33000183
C    14.60999966  16.62999916  45.27999878
C     4.67999983  17.34000015  46.00999832
H     4.28685760  16.89682198  45.09505081
H     9.26000023  17.42000008  43.72000122
H    10.47000027  15.90000057  48.29000092
H     8.06999969  16.04999924  49.00000000
H     5.55999994  16.77999878  48.34000015
H     6.77999973  17.53999901  44.41999817
H    15.15999985  16.81999969  44.36000061
H     4.05000019  17.13000107  46.88999939
H     4.69000006  18.44000053  45.91999817
S    15.67000008  15.25000000  48.80000305
C    18.30000114  14.78999996  47.94000244
C    17.05999947  15.36999893  47.70999908
C    16.79999924  16.10000038  46.56000137
C    17.79999924  16.29999924  45.63000107
C    19.11000061  15.76000023  45.87999725
C    20.17000008  15.92000008  44.92000198
C    21.44000053  15.29999924  45.06999969
C    21.68000031  14.72000027  46.29000092
C    20.68000031  14.57999992  47.25999832
C    19.30999947  15.03000069  47.05999756
C    15.34000015  16.34000015  46.45999908
C    14.60000038  16.03000069  47.64999771
C    13.21000004  15.97000027  47.70000076
C    23.13999939  14.42999935  46.63999939
H    23.42934608  14.68317699  47.65993881
H    18.57999992  14.27000046  48.85000229
H    17.54999924  16.61999893  44.61999893
H    20.03999901  16.56999969  44.06000137
H    22.17000008  15.54999924  44.31000137
H    20.88000107  14.15999985  48.23999786
H    12.64000034  15.67000008  48.56999969
H    23.59999847  15.18000031  45.97999954
H    23.35000038  13.40000057  46.35000229
S    16.21000099  12.79000092  51.93999863
C    18.90999985  12.11999989  51.33999634
C    17.57999992  12.15999985  50.96000290
C    17.06999969  11.75000000  49.68999863
C    18.02999878  11.39000034  48.76999664
C    19.43000031  11.31000042  49.09999847
C    20.43999863  10.85999966  48.18000031
C    21.76000214  10.72999954  48.60000229
C    22.11999893  11.07999992  49.87999725
C    21.28000069  11.64000034  50.75000000
C    19.85999870  11.67000008  50.38999939
C    15.60999966  11.84999943  49.52999878
C    15.07999992  12.48999977  50.65999985
C    13.75000000  13.07999992  50.72000122
C    23.54000092  10.97000027  50.25000000
H    23.77246284  11.20246220  51.28924179
H    19.27000046  12.63000011  52.22999954
H    17.70000076  11.03999996  47.80000305
H    20.10000038  10.67999935  47.15999985
H    22.53000069  10.38000011  47.93000031
H    21.45000076  12.13000107  51.70999908
H    13.35999966  13.55000019  51.62000275
H    23.85999870   9.96000004  49.99000168
H    24.05999947  11.68000031  49.59000015
S    12.18000031  11.71000004  47.25999832
C     9.59000015  12.25999928  48.25000000
C    10.90999985  12.41000080  48.39000320
C    11.51999950  12.97000027  49.56999969
C    10.67000008  13.42000008  50.59000015
C     9.28999996  13.30999947  50.48999786
C     8.38000011  13.85000038  51.43000031
C     7.03000021  13.78999901  51.25999832
C     6.47000027  13.31999969  50.04000092
C     7.26000023  12.81000042  49.12000275
C     8.69999981  12.68000031  49.33000183
C    12.94000053  12.79999924  49.61999893
C    13.43999958  12.09000015  48.52000427
C    14.73999977  11.56999969  48.47000122
C     5.09999990  13.71000099  49.72000122
H     4.84965229  13.38097191  48.71145630
H     9.23999977  11.90000057  47.29000092
H    11.18000031  13.86999989  51.44000244
H     8.82999992  14.39000034  52.25999832
H     6.25999975  14.23999977  51.88999939
H     6.89000034  12.56999969  48.13000107
H    15.06000042  11.14999962  47.52999878
H     4.96000004  14.78999996  49.75000000
H     4.39000034  13.27999973  50.45000076
