96

S    12.53000069  16.77999878  44.20000076
C     9.81000042  17.13999939  44.92000198
C    11.09000015  16.63999939  45.17000198
C    11.39999962  16.18000031  46.52999878
C    10.43000031  16.28999901  47.50000000
C     9.11999989  16.69000053  47.22000122
C     8.11999989  16.79999924  48.20999908
C     6.81999969  17.18000031  47.87000275
C     6.48000002  17.53000069  46.59999847
C     7.44999981  17.61999893  45.65000153
C     8.78999996  17.11000061  45.91999817
C    12.84999943  16.22999954  46.72999954
C    13.56999969  16.48999977  45.56999969
C    14.96000099  16.46000099  45.50000000
C     5.03000021  17.86999893  46.18000031
H     4.65361452  17.20954895  45.39882278
H     9.63000011  17.59000015  43.94000244
H    10.65999985  16.06999969  48.54000092
H     8.50000000  16.69999886  49.22000122
H     6.14000034  17.39999962  48.68999863
H     7.23000002  17.92000008  44.62999725
H    15.43000031  16.46999931  44.52000046
H     4.36999989  17.78000069  47.04999924
H     5.07000017  18.89999962  45.79000092
S    16.07999992  15.40999985  49.12000275
C    18.71999931  15.14999962  48.33000183
C    17.43000031  15.51000023  48.06000137
C    17.12000084  16.02000046  46.81000137
C    18.15999985  16.09000015  45.87999725
C    19.44000053  15.55999947  46.09000397
C    20.55000114  15.55999947  45.07999802
C    21.77999878  14.96999931  45.41999817
C    22.01999855  14.47000027  46.75000000
C    20.95000076  14.52000046  47.63999939
C    19.65999985  15.13000011  47.34000397
C    15.67999935  16.11999893  46.66999817
C    14.96999931  15.88000107  47.84999847
C    13.60000038  16.00000000  47.88000107
C    23.39999962  14.06000042  47.22999954
H    23.75215149  14.71399689  48.02773285
H    19.01000023  14.78000069  49.31000137
H    17.94000053  16.23999977  44.82999802
H    20.29999924  16.00000000  44.12000275
H    22.56000137  14.92000008  44.65999985
H    21.18999863  14.22000027  48.66000366
H    13.02999973  15.85000038  48.79000092
H    24.07999992  14.01999950  46.38000107
H    23.26000023  13.14000034  47.81000137
S    15.90000057  13.02999973  51.95999908
C    18.43000031  12.28999996  51.25000000
C    17.13000107  12.41000080  50.90999985
C    16.61000061  11.92999935  49.68000031
C    17.45000076  11.38000011  48.72000122
C    18.79999924  11.23000050  49.06000137
C    19.76000023  10.80999947  48.08000183
C    21.09000015  10.77000046  48.40999985
C    21.56999969  11.07999992  49.75000000
C    20.69000053  11.59999943  50.54999924
C    19.32999992  11.71000004  50.27999878
C    15.26000023  12.28999996  49.56999969
C    14.65000057  12.69000053  50.76000214
C    13.30000019  13.02000046  50.91999817
C    23.05000114  10.80000019  50.05000305
H    23.34585381  11.19447327  51.02209473
H    18.82999992  12.72999954  52.15999985
H    17.17000008  11.18999958  47.69000244
H    19.31999969  10.53999996  47.12999725
H    21.83000183  10.36000061  47.72999573
H    20.94000053  11.90999985  51.56000137
H    12.89999962  13.15999985  51.91999817
H    23.09999847   9.71000004  50.12000275
H    23.64000130  11.19999981  49.20999908
S    11.87000084  12.27000046  47.19999695
C     9.21000004  12.74000072  48.15000153
C    10.57000065  12.71000004  48.36000061
C    11.07999992  13.04999924  49.65999985
C    10.15999985  13.56999969  50.63999939
C     8.78999996  13.53000069  50.38000107
C     7.90999985  13.93000031  51.45000076
C     6.57000017  13.90999985  51.25999832
C     5.98999977  13.64999962  49.95999908
C     6.85999966  13.27999973  48.88000107
C     8.27999973  13.07999992  49.12000275
C    12.51000023  12.86000061  49.78000259
C    13.05999947  12.51000023  48.56999969
C    14.39000034  12.17000008  48.40999985
C     4.51999998  13.82999992  49.66999817
H     4.27794313  13.64489746  48.62345886
H     8.71000004  12.53999901  47.19999695
H    10.48999977  13.90999985  51.62000275
H     8.34999943  14.27000046  52.37999725
H     5.96000004  14.34000015  52.04999924
H     6.44000006  13.17000008  47.88999939
H    14.85999966  11.84999943  47.48000336
H     4.28999996  14.85000038  50.00999832
H     3.91000009  13.21000004  50.33000183
