96

S    12.30999947  16.84999847  44.31000137
C     9.71000004  17.28000069  45.15999603
C    10.93999958  16.92000008  45.40000153
C    11.36000061  16.47999954  46.70999908
C    10.39999962  16.32999992  47.71999741
C     9.13000011  16.82999992  47.44999695
C     8.18000031  16.81999969  48.44999695
C     6.90000010  17.28999901  48.23999786
C     6.52999973  17.73999977  46.91999817
C     7.48000050  17.78000069  45.87999725
C     8.73999977  17.22999954  46.16000366
C    12.75000000  16.15999985  46.79000092
C    13.48999977  16.50000000  45.61000061
C    14.88000011  16.46999931  45.56000137
C     5.09000015  18.19000053  46.65000153
H     4.62521839  17.56566620  45.88692474
H     9.51000023  17.59000015  44.13999939
H    10.72000027  15.88000107  48.64999771
H     8.46000004  16.39000130  49.40000153
H     6.25000000  17.28000069  49.10999680
H     7.25000000  18.17000008  44.89999771
H    15.39000034  16.77999878  44.65999985
H     4.55999994  18.07999992  47.60000229
H     5.14999962  19.27000046  46.43000031
S    15.86999989  15.08999920  49.19000244
C    18.52000046  15.01000023  48.56999969
C    17.28000069  15.42000008  48.18999863
C    16.97999954  15.95000076  46.91999817
C    18.02000046  16.03000069  45.98999786
C    19.29000092  15.44999981  46.22000122
C    20.31999969  15.48999977  45.31000137
C    21.57999992  15.06999969  45.68999863
C    21.87000084  14.72000027  47.05999756
C    20.82999992  14.55999947  47.97000122
C    19.51000023  14.94999981  47.56999969
C    15.54999924  16.09000015  46.72000122
C    14.78000069  15.75000000  47.88999939
C    13.43999958  15.81999969  47.97000122
C    23.29999924  14.37000084  47.45999908
H    23.60411263  14.72479916  48.44474792
H    18.78000069  14.68000031  49.56999969
H    17.90999985  16.51000023  45.02999878
H    20.23999977  15.80999947  44.27000046
H    22.46000099  15.14999962  45.06000137
H    21.01000023  14.37999916  49.02999878
H    12.96000004  15.84000015  48.94000244
H    23.95000076  14.70999908  46.63000107
H    23.32999992  13.28999996  47.30999756
S    15.93999958  12.56000042  51.97000122
C    18.64999962  12.17000008  51.19999695
C    17.29999924  12.11999989  50.90000153
C    16.84000015  11.75000000  49.64000320
C    17.77000046  11.52999973  48.67000198
C    19.19999886  11.59000015  48.89999771
C    20.20999908  11.13000011  48.02999878
C    21.52000046  10.93999958  48.37999725
C    21.97999954  11.30000019  49.62999725
C    21.00000000  11.71000004  50.56000137
C    19.65999985  11.87999916  50.24000168
C    15.43000031  12.00000000  49.47000122
C    14.78000069  12.28999996  50.70000076
C    13.50999928  12.79000092  50.76000214
C    23.31000137  10.85000038  50.17000198
H    23.48627090  11.13474369  51.20728302
H    19.12999916  12.48999977  52.12999725
H    17.46000099  11.14999962  47.70000076
H    19.96000099  10.77999973  47.02999878
H    22.14999962  10.32999992  47.74000168
H    21.18999863  11.73999977  51.63000107
H    13.01000023  13.03999996  51.69000244
H    23.31000137   9.76000023  50.08999634
H    24.10000038  11.26999950  49.54000092
S    12.02000046  12.10999966  47.06999969
C     9.39000034  12.43000031  47.90999985
C    10.75000000  12.51000023  48.20000076
C    11.31000042  12.84000015  49.45000076
C    10.44999981  13.14000034  50.45999908
C     9.11000061  13.27000046  50.21999741
C     8.17000008  13.78999901  51.19999695
C     6.78999996  13.83999920  51.00000000
C     6.28999996  13.56999969  49.75000000
C     7.07999992  12.94999981  48.85000229
C     8.50000000  12.84999943  48.97999573
C    12.76000023  12.69999981  49.58000183
C    13.31999969  12.30999947  48.34000015
C    14.67000008  12.05000019  48.27000046
C     4.92999983  14.04999924  49.36999893
H     4.75442934  13.72080517  48.34583664
H     9.00000000  12.10999966  46.95000076
H    10.77999973  13.36999989  51.46999741
H     8.60999966  14.06999969  52.15000153
H     6.19000006  14.27000046  51.79999924
H     6.56000042  12.69000053  47.93000031
H    15.06999969  11.64000034  47.34000397
H     4.92000008  15.14999962  49.40000153
H     4.15999985  13.76000023  50.08999634
