96

S    12.31999969  16.42000008  44.19000244
C     9.81000042  17.28000069  44.95999908
C    10.90999985  16.59000015  45.21999741
C    11.26000023  16.13000107  46.56999969
C    10.22999954  16.27000046  47.50999832
C     8.97999954  16.79999924  47.19999695
C     7.88000011  16.77999878  48.16999817
C     6.63000011  17.12000084  47.72999573
C     6.42000008  17.76000023  46.45999908
C     7.46999979  17.92000008  45.56999969
C     8.73000050  17.31999969  45.86999893
C    12.69000053  15.88999939  46.75000000
C    13.40000057  15.98999977  45.52999878
C    14.75999928  15.90999985  45.47000122
C     5.05000019  18.26000023  46.06999969
H     4.70818472  17.69742966  45.20122147
H     9.81000042  17.80999947  44.01000214
H    10.46000004  15.88000107  48.50000000
H     8.07999992  16.46000099  49.19000244
H     5.78000021  16.90000153  48.36999893
H     7.28999996  18.52000046  44.68000031
H    15.34999943  16.22999954  44.61999893
H     4.30000019  18.09999847  46.84999847
H     5.00999975  19.34999847  45.90999985
S    16.01000023  15.48999977  49.20999908
C    18.64999962  15.13000011  48.33000183
C    17.34000015  15.44999981  48.06999969
C    16.95999908  15.73999977  46.72000122
C    17.88999939  15.77999973  45.68999863
C    19.26000023  15.40999985  45.94999695
C    20.22000122  15.38000011  44.89999771
C    21.45999908  14.96000099  45.21999741
C    21.90000153  14.60000038  46.52999878
C    20.86999893  14.52999973  47.56999969
C    19.54000092  15.03999901  47.25999832
C    15.52000046  15.84000015  46.63000107
C    14.84000015  15.71000004  47.84999847
C    13.40999985  15.77999973  47.90000153
C    23.35000038  14.26000023  46.86000061
H    23.58308983  14.81093979  47.77117157
H    19.04000092  14.82999992  49.31000137
H    17.63000107  16.03000069  44.65999985
H    20.03999901  15.81999969  43.92000198
H    22.22999954  15.03000069  44.45999908
H    21.01000023  14.34999943  48.62999725
H    12.94000053  15.75000000  48.88000107
H    24.13000107  14.52000046  46.13999939
H    23.50000000  13.19000053  47.02999878
S    16.10000038  12.82999992  51.91999817
C    18.78000069  12.27000046  51.14999771
C    17.46000099  12.32999992  50.80999756
C    16.90999985  11.92000008  49.50000000
C    17.81999969  11.56999969  48.53000259
C    19.20999908  11.63000011  48.82999802
C    20.17999840  11.17000008  47.90000153
C    21.53000069  11.11999989  48.18999863
C    21.96000099  11.42000008  49.54000092
C    21.04000092  11.82999992  50.50000000
C    19.71999931  11.96000004  50.10000229
C    15.47999954  12.07999992  49.45999908
C    14.94999981  12.60000038  50.65999985
C    13.63000011  12.97000027  50.86000061
C    23.44000053  11.05000019  49.93999863
H    23.70863533  11.47836304  50.90562820
H    19.19999886  12.39999962  52.14000320
H    17.46999931  11.10999966  47.61000061
H    19.69000053  10.85000038  46.98999786
H    22.26000023  10.77999973  47.47000122
H    21.14999962  11.85999966  51.58000183
H    13.23999977  13.48000050  51.73999786
H    23.59999847   9.96999931  49.97000122
H    24.09000015  11.47999954  49.16999817
S    12.01000023  12.09000015  47.31999969
C     9.51000023  12.89000034  48.13999939
C    10.85999966  12.86000061  48.37999725
C    11.42000008  13.26000023  49.62999725
C    10.57999992  13.71999931  50.59000015
C     9.11999989  13.71000099  50.41999817
C     8.21000004  14.14999962  51.39999771
C     6.83000040  14.14999962  51.03000259
C     6.38999987  13.71999931  49.75999832
C     7.27999973  13.31999969  48.81000137
C     8.60000038  13.35000038  49.13999939
C    12.84999943  12.86000061  49.75000000
C    13.28999996  12.25000000  48.54000092
C    14.59000015  11.87000084  48.43000031
C     4.86999989  13.89999962  49.40999985
H     4.65077353  13.68077374  48.36502075
H     9.11999989  12.43999958  47.22999954
H    10.85999966  14.04999924  51.59000015
H     8.56000042  14.75000000  52.22999954
H     6.12999964  14.63000107  51.72000122
H     6.97000027  12.97000027  47.81999969
H    14.96000099  11.47999954  47.48000336
H     4.48999977  14.89999962  49.65999985
H     4.30999994  13.22000027  50.06000137
