96

S    12.42000008  16.79000092  44.27999878
C     9.67000008  17.12000084  44.98000336
C    10.97000027  16.73999977  45.31999969
C    11.28999901  16.25000000  46.66999817
C    10.19000053  15.98000050  47.54000092
C     8.89999962  16.45000076  47.25000000
C     7.85000038  16.23999977  48.15999985
C     6.54999971  16.56999969  47.78999710
C     6.30000019  17.26000023  46.55000305
C     7.31999969  17.32999992  45.61999893
C     8.63000011  16.97000122  45.91999817
C    12.67000008  16.09000015  46.88000107
C    13.40999985  16.34000015  45.61999893
C    14.78999996  16.34000015  45.56000137
C     4.84000015  17.56000137  46.18999863
H     4.50058794  17.04381180  45.29197311
H     9.52000046  17.77000046  44.12000275
H    10.31999969  15.44999981  48.47999954
H     8.10000038  15.70000076  49.06999969
H     5.69000006  16.52000046  48.44999695
H     7.13999987  17.64999962  44.59999847
H    15.25000000  16.45000076  44.58000183
H     4.26999998  17.28000069  47.06999969
H     4.94999981  18.63999939  46.03000259
S    16.02000046  15.85999966  49.27000046
C    18.64999962  15.36000061  48.48999786
C    17.38999939  15.81999969  48.16999817
C    17.04000092  16.00000000  46.77999878
C    17.95999908  16.05999947  45.80999756
C    19.27999878  15.59000015  46.13999939
C    20.23999977  15.39000034  45.11000061
C    21.47000122  14.96999931  45.45999908
C    21.81999969  14.73999977  46.81000137
C    20.88000107  14.75999928  47.84000015
C    19.59000015  15.18000031  47.45999908
C    15.57999992  16.13000107  46.66999817
C    14.93000031  15.90999985  47.85999680
C    13.53999996  15.75000000  48.00000000
C    23.25000000  14.72000027  47.11999893
H    23.44614029  15.18492317  48.08616638
H    18.86000061  15.07999992  49.51000214
H    17.67000008  16.18000031  44.77000427
H    19.95000076  15.59999943  44.09000015
H    22.26000023  15.15999985  44.73999786
H    21.18000031  14.75000000  48.88000107
H    13.05999947  15.27999973  48.85000229
H    23.78000069  15.26999950  46.33999634
H    23.74000168  13.73999977  47.11000061
S    15.65999985  13.22000027  52.29999924
C    18.35000038  12.96000004  51.62000275
C    16.95999908  12.86000061  51.27999878
C    16.45000076  12.27000046  50.00999832
C    17.36999893  11.82000065  49.09999847
C    18.78999901  11.92000008  49.45000076
C    19.79999924  11.54999924  48.47999954
C    21.11000061  11.47999954  48.70999908
C    21.61000061  11.78999996  50.01999664
C    20.72000122  12.35999966  50.96000290
C    19.27000046  12.46000099  50.68000031
C    15.03999901  12.53999901  49.81999969
C    14.42000008  12.94999981  50.98999786
C    13.02999973  13.09999943  51.09000397
C    23.01000214  11.49000072  50.34000015
H    23.29347229  11.79585266  51.34707642
H    18.71000099  13.19000053  52.61000061
H    17.13000107  11.32999992  48.15000153
H    19.37000084  11.54000092  47.49000168
H    21.80000114  11.11999989  47.95000076
H    21.12999916  12.72999954  51.88999939
H    12.60000038  13.45999908  52.02000046
H    23.19999886  10.40999985  50.26000214
H    23.59999847  12.02000046  49.58000183
S    11.69999981  12.07999992  47.51999664
C     8.93999958  12.81000042  48.13999939
C    10.29000092  12.69999981  48.43999863
C    10.77000046  13.19000053  49.69999695
C     9.85000038  13.63999939  50.65999985
C     8.43999958  13.56999969  50.45999908
C     7.48000050  13.86000061  51.42000198
C     6.14000034  13.93000031  51.11999893
C     5.63000011  13.45999908  49.94999695
C     6.51999998  13.07000065  48.94000244
C     7.96999979  13.15999985  49.13000107
C    12.23000050  12.98999977  49.88999939
C    12.84000015  12.46999931  48.75000000
C    14.22999954  12.25999928  48.69999695
C     4.18000031  13.71999931  49.58000183
H     4.00738287  13.56989765  48.51427460
H     8.52999973  12.51999950  47.18000031
H    10.22999954  13.93000031  51.63000107
H     7.96000004  14.27999973  52.29999924
H     5.59000015  14.60000038  51.77999878
H     6.24000025  12.65999985  47.97000122
H    14.61999989  11.92999935  47.74000168
H     4.13000011  14.80999947  49.59000015
H     3.40000010  13.30999947  50.21999741
