96

S    12.15000057  17.02999878  44.10999680
C     9.44999981  17.26000023  44.79999924
C    10.64000034  16.82999992  45.18000031
C    10.90999985  16.35000038  46.52000046
C     9.96999931  16.13000107  47.49000168
C     8.64000034  16.57999992  47.08000183
C     7.55999994  16.64999962  47.97999954
C     6.39999962  17.15999985  47.65999603
C     6.12999964  17.54999924  46.35000229
C     7.14999962  17.60000038  45.40000153
C     8.43000031  17.13999939  45.75000000
C    12.35000038  16.20000076  46.62000275
C    13.15999985  16.46000099  45.48999786
C    14.53999996  16.53000069  45.38999939
C     4.76999998  18.02999878  45.97999954
H     4.53664970  17.71886635  44.96174240
H     9.22000027  17.64999962  43.81000137
H    10.05000019  15.86999989  48.54000092
H     7.73000002  16.27000046  48.97999573
H     5.52999973  17.13000107  48.31999969
H     7.04999971  17.94999886  44.38000107
H    14.96000099  16.86000061  44.43999863
H     4.03999996  17.50000000  46.59999847
H     4.63999987  19.10000038  46.22000122
S    15.59000015  15.75000000  49.05000305
C    18.09999847  15.24000072  48.34000015
C    16.95000076  15.77000046  47.98999786
C    16.62999916  16.17000008  46.66999817
C    17.61000061  16.21999931  45.72000122
C    18.86999893  15.72000027  46.04999924
C    19.96999931  15.72999954  45.17000198
C    21.22999954  15.18000031  45.48999786
C    21.40999985  14.55999947  46.77000046
C    20.36999893  14.56999969  47.68000031
C    19.10000038  15.15999985  47.38999939
C    15.26000023  16.32999992  46.53999710
C    14.50000000  16.11999893  47.71999741
C    13.09000015  15.97000027  47.77999878
C    22.84000015  14.21000004  47.25999832
H    23.05384827  14.57354259  48.26508713
H    18.19000053  14.82999992  49.34999847
H    17.30999947  16.51000023  44.72000122
H    19.82999992  16.14999962  44.18000031
H    22.13000107  15.34000015  44.91000366
H    20.62000084  14.19000053  48.67000198
H    12.56999969  15.71000004  48.68999863
H    23.31999969  14.85999966  46.51000214
H    23.06999969  13.15000057  47.15000153
S    11.64000034  17.29999924  50.68999863
C     8.93000031  17.39999962  51.36000061
C    10.17000008  17.04000092  51.70000076
C    10.46000004  16.53000069  52.97000122
C     9.44000053  16.27000046  53.87000275
C     8.10999966  16.68000031  53.54000092
C     7.18999958  16.80999947  54.59000015
C     5.92999983  17.28999901  54.31999969
C     5.56999969  17.69000053  53.00000000
C     6.51999998  17.64999962  51.97000122
C     7.81000042  17.21999931  52.25000000
C    11.90000057  16.29999924  53.06999969
C    12.64000034  16.69999886  52.00000000
C    14.04000092  16.67000008  51.97000122
C     4.19999981  18.07999992  52.63000107
H     3.84927034  17.48083687  51.78970718
H     8.82999992  17.82999992  50.37000275
H     9.81000042  16.06999969  54.87999725
H     7.42999983  16.55999947  55.61999893
H     5.17000008  17.43000031  55.08999634
H     6.38999987  18.17000008  51.03000259
H    14.63000107  16.84999847  51.07999802
H     3.61000013  18.04999924  53.55999756
H     4.11000013  19.11999893  52.31999969
S    15.01999950  15.59999943  55.76000214
C    17.69000053  15.19999981  55.01999664
C    16.42000008  15.53999996  54.66999817
C    16.06999969  15.88000107  53.30999756
C    17.02999878  16.03999901  52.37999725
C    18.44000053  15.72000027  52.67000198
C    19.51000023  15.88000107  51.76000214
C    20.81999969  15.60999966  52.11000061
C    21.12999916  15.19999981  53.37999725
C    20.06000137  15.06000042  54.31000137
C    18.72999954  15.32999992  54.02000046
C    14.67000008  16.14999962  53.16999817
C    13.90999985  15.86999989  54.33000183
C    12.56000042  15.81999969  54.20000076
C    22.56000137  14.96000099  53.83999634
H    22.71674347  15.03837109  54.91581726
H    17.94999886  15.21999931  56.07999802
H    16.72000122  16.52000046  51.45999908
H    19.29999924  16.39000130  50.81999969
H    21.64999962  15.93000031  51.49000168
H    20.22999954  14.70999908  55.31999969
H    11.98999977  15.59000015  55.10000229
H    23.26000023  15.69000053  53.43000031
H    22.92000008  13.97999954  53.50000000
