96

S    12.18999958  16.77000046  44.23999786
C     9.57999992  17.18000031  44.87999725
C    10.84000015  16.79000092  45.28999710
C    11.14999962  16.32999992  46.59999847
C    10.11999989  16.22999954  47.48000336
C     8.76000023  16.62999916  47.14000320
C     7.72000027  16.61999893  48.11000061
C     6.50000000  17.12000084  47.77000046
C     6.17000008  17.56999969  46.45000076
C     7.18999958  17.54999924  45.52000046
C     8.50000000  17.13999939  45.81999969
C    12.53999901  15.98000050  46.69000244
C    13.27000046  16.31999969  45.52000046
C    14.60000038  16.40999985  45.40000153
C     4.75000000  17.97999954  46.04999924
H     4.38726234  17.39677429  45.20361328
H     9.39000034  17.68000031  43.93000031
H    10.22999954  15.86999989  48.50000000
H     7.78999996  16.02000046  49.01000214
H     5.78999996  16.95999908  48.56999969
H     6.98999977  17.86999893  44.50000000
H    15.01000023  16.61999893  44.41999817
H     4.03999996  17.97000122  46.88000107
H     4.80999994  19.01000023  45.68000031
S    15.75000000  15.26999950  49.13999939
C    18.40999985  14.93000031  48.47999954
C    17.15999985  15.42000008  48.16999817
C    16.84999847  15.85000038  46.75000000
C    17.77000046  15.98000050  45.80999756
C    19.10000038  15.59999943  46.18000031
C    20.13999939  15.73999977  45.24000168
C    21.47000122  15.52000046  45.56999969
C    21.80999947  15.13000011  46.93999863
C    20.78000069  14.91000080  47.84999847
C    19.40999985  15.05000019  47.49000168
C    15.34999943  16.03000069  46.62000275
C    14.61999989  15.69000053  47.78999710
C    13.27000046  15.54999924  47.80000305
C    23.23999786  14.96000099  47.36000061
H    23.23268700  14.51392937  48.35451889
H    18.54999924  14.50000000  49.45999908
H    17.56999969  16.35000038  44.80999756
H    19.89999962  16.10000038  44.23999786
H    22.20999908  15.67999935  44.79000092
H    21.01000023  14.57999992  48.86000061
H    12.76000023  15.34000015  48.73000336
H    23.64000130  15.97000027  47.23999786
H    23.81999969  14.27999973  46.70999908
S    11.75000000  17.13000107  50.63999939
C     9.03999996  17.63000107  51.29000092
C    10.31000042  17.22999954  51.65999985
C    10.62000084  16.69000053  52.93000031
C     9.63000011  16.61999893  53.90999603
C     8.30000019  17.11000061  53.59000397
C     7.31999969  17.17000008  54.59000015
C     6.01999998  17.61000061  54.31000137
C     5.78999996  18.13999939  53.02999878
C     6.72999954  17.98999977  52.02000046
C     8.01999950  17.59000015  52.28000259
C    12.05999947  16.53000069  53.13000107
C    12.76999950  16.72999954  51.97999954
C    14.18000031  16.69999886  51.95999908
C     4.36999989  18.34000015  52.69000244
H     3.91592813  17.76209068  51.88505554
H     8.73999977  17.97000122  50.30000305
H     9.92000008  16.55999947  54.95999908
H     7.62000036  16.98999977  55.61999893
H     5.28999996  17.61000061  55.11000061
H     6.60000038  18.30000114  50.98999786
H    14.70000076  16.92000008  51.03000259
H     3.77999997  18.22000122  53.61000061
H     4.15000010  19.38999939  52.43000031
S    15.03999901  15.51000023  55.70000076
C    17.79999924  15.34000015  55.13000107
C    16.51000023  15.59000015  54.69999695
C    16.21000099  15.95000076  53.34999847
C    17.29999924  15.95000076  52.50000000
C    18.64999962  15.59999943  52.90000153
C    19.71999931  15.62999916  52.02000046
C    20.96999931  15.39000034  52.43999863
C    21.25999832  15.10000038  53.82999802
C    20.15999985  15.03999901  54.68999863
C    18.89999962  15.36000061  54.26000214
C    14.82999992  16.22999954  53.08000183
C    14.06000042  16.01000023  54.29999924
C    12.67000008  16.13000107  54.34999847
C    22.65999985  14.63999939  54.31000137
H    22.97856712  15.14262772  55.22322464
H    18.02999878  14.98000050  56.12999725
H    17.20999908  16.22999954  51.45999908
H    19.56999969  15.80999947  50.96000290
H    21.76000214  15.38000011  51.69000244
H    20.28000069  14.70000076  55.72000122
H    12.00000000  16.03000069  55.20000076
H    23.32999992  14.84000015  53.46000290
H    22.72000122  13.55000019  54.34999847
