96

S    11.82000065  16.81999969  44.19000244
C     9.19000053  17.10000038  44.94999695
C    10.43000031  16.69000053  45.31000137
C    10.78999996  16.15999985  46.56999969
C     9.80000019  16.18999863  47.57999802
C     8.46000004  16.48999977  47.19999695
C     7.36000013  16.53000069  48.13999939
C     6.14000034  17.02000046  47.75000000
C     5.78000021  17.39999962  46.39999771
C     6.80999994  17.42000008  45.52000046
C     8.14999962  17.02999878  45.90000153
C    12.25999928  15.98000050  46.62000275
C    12.97999954  16.34000015  45.47000122
C    14.34999943  16.23999977  45.41999817
C     4.36999989  17.64999962  45.98999786
H     4.01641655  17.03476334  45.16261292
H     9.01000023  17.63000107  44.02000046
H    10.05000019  15.95000076  48.61000061
H     7.50999975  16.23999977  49.16999817
H     5.40000010  17.02999878  48.54999924
H     6.61000013  17.72999954  44.50000000
H    14.88999939  16.55999947  44.52999878
H     3.73000002  17.34000015  46.83000183
H     4.19999981  18.71000099  45.73999786
S    15.60999966  15.31000042  49.06999969
C    18.22000122  15.27999973  48.50000000
C    16.95000076  15.60999966  48.06000137
C    16.55999947  15.93999958  46.72999954
C    17.65999985  16.13000107  45.86000061
C    18.98999977  15.77000046  46.31000137
C    20.06000137  15.80000019  45.37000275
C    21.40000153  15.59999943  45.75000000
C    21.67000008  15.15999985  47.04999924
C    20.69000053  15.03000069  47.97999954
C    19.32999992  15.38000011  47.64999771
C    15.11999989  16.02000046  46.52999878
C    14.42000008  15.77999973  47.77000046
C    13.02999973  15.73999977  47.77000046
C    23.09000015  14.75000000  47.36000061
H    23.53517723  15.34357071  48.15849304
H    18.40999985  14.93000031  49.51000214
H    17.40999985  16.48999977  44.86000061
H    19.75000000  15.95999908  44.34000015
H    22.11999893  15.55999947  44.93999863
H    20.88999939  14.75000000  49.01000214
H    12.61000061  15.62000084  48.75999832
H    23.61999893  14.94999981  46.42000198
H    23.12000084  13.68999958  47.65999603
S    11.78999996  16.82999992  50.97999954
C     9.15000057  17.28000069  51.79999924
C    10.39999962  16.87000084  52.12999725
C    10.76000023  16.36999893  53.40999985
C     9.84000015  16.36000061  54.41999817
C     8.55000019  16.90000153  54.16999817
C     7.57999992  16.92000008  55.18000031
C     6.30000019  17.43000031  54.92000198
C     5.92999983  17.79999924  53.59000397
C     6.86999989  17.84000015  52.60000229
C     8.22000027  17.38000107  52.85999680
C    12.20999908  16.18999863  53.46000290
C    12.89000034  16.39999962  52.25000000
C    14.27999973  16.43000031  52.12999725
C     4.53000021  18.15999985  53.23999786
H     4.24252033  17.54818344  52.38493347
H     8.92000008  17.53000069  50.76000214
H    10.13000011  15.85000038  55.33000183
H     7.76000023  16.46000099  56.13999939
H     5.64000034  17.53999901  55.77999878
H     6.65000010  18.31999969  51.65000153
H    14.80000019  16.72999954  51.23000336
H     3.84000015  17.95999908  54.06999969
H     4.41000032  19.22000122  52.97999954
S    15.42000008  15.76000023  55.86000061
C    18.04000092  15.01999950  55.10000229
C    16.82999992  15.60999966  54.79999924
C    16.50000000  15.95000076  53.47000122
C    17.47999954  16.04999924  52.51999664
C    18.79999924  15.67999935  52.83000183
C    19.85000038  15.90000057  51.86999893
C    21.18000031  15.59000015  52.22000122
C    21.42999840  14.86999989  53.43999863
C    20.38000107  14.70000076  54.38000107
C    19.03000069  15.10000038  54.12000275
C    15.06000042  16.25000000  53.27999878
C    14.35999966  16.13000107  54.50000000
C    12.98999977  16.07999992  54.65999985
C    22.79999924  14.40999985  53.81000137
H    23.11087418  14.98114395  54.68478775
H    18.26000023  14.51000023  56.03000259
H    17.20999908  16.39999962  51.52999878
H    19.69000053  16.11999893  50.81999969
H    22.01000023  15.73999977  51.52999878
H    20.56999969  14.11000061  55.27999878
H    12.63000011  15.93000031  55.66999817
H    23.48999977  14.56999969  52.97000122
H    22.81999969  13.32999992  54.00000000
