96

S    12.30000019  17.35999870  44.58000183
C     9.61000061  17.45000076  45.12000275
C    10.85999966  16.98999977  45.48999786
C    11.13999939  16.57999992  46.86000061
C    10.03999901  16.46000099  47.70000076
C     8.76999950  16.80999947  47.22000122
C     7.64999962  16.56999969  48.11999893
C     6.34000015  17.02999878  47.77000046
C     6.15000010  17.56000137  46.46999741
C     7.21000004  17.60000038  45.58000183
C     8.50000000  17.23999977  45.93000031
C    12.61999989  16.39999962  47.04000092
C    13.31999969  16.84999847  45.90999985
C    14.68000031  16.69000053  45.72999954
C     4.90000010  18.06999969  45.96000290
H     4.28417206  17.38818932  45.37349701
H     9.46000004  17.85000038  44.12000275
H    10.03000069  15.93000031  48.64999771
H     7.83999968  15.93999958  48.99000168
H     5.50000000  17.12000084  48.43999863
H     7.02000046  17.80999947  44.52999878
H    15.13000011  16.77999878  44.75000000
H     4.32999992  18.51000023  46.79000092
H     5.13000011  18.97999954  45.38999939
S    15.95999908  15.18000031  49.13999939
C    18.54999924  14.91000080  48.34000015
C    17.26000023  15.29999924  48.04000092
C    16.87000084  15.92000008  46.88000107
C    17.88999939  16.13000107  45.86999893
C    19.26000023  15.84000015  46.13999939
C    20.29999924  15.90999985  45.15999603
C    21.54999924  15.44000053  45.41999817
C    21.84999847  14.98999977  46.73999786
C    20.86000061  14.77000046  47.65999603
C    19.61000061  15.19000053  47.38999939
C    15.43000031  16.25000000  46.81000137
C    14.77000046  15.73999977  47.97999954
C    13.31999969  15.72000027  48.02999878
C    23.34000015  14.65000057  47.11000061
H    23.70482254  15.16625786  47.99796677
H    18.82999992  14.34999943  49.22999954
H    17.67000008  16.59000015  44.91000366
H    19.86999893  16.21999931  44.20999908
H    22.34999847  15.44000053  44.68999863
H    21.09000015  14.19000053  48.54000092
H    12.75000000  15.43000031  48.90999603
H    24.09000015  14.84000015  46.33999634
H    23.32999992  13.55999947  47.22000122
S    15.88999939  13.09000015  52.30999756
C    18.53000069  12.44999981  51.56999969
C    17.18000031  12.35000038  51.35000229
C    16.70999908  12.03999996  50.02999878
C    17.65999985  11.59000015  49.13000107
C    19.05999947  11.56999969  49.43000031
C    20.12000084  11.03999996  48.52000427
C    21.40000153  11.05000019  48.86000061
C    21.78999901  11.61999893  50.10000229
C    20.89999962  12.02000046  51.05999756
C    19.52999878  12.03999996  50.70000076
C    15.26000023  12.27000046  49.93999863
C    14.68999958  12.84999943  51.06999969
C    13.36999989  13.25000000  51.04000092
C    23.16999817  11.14999962  50.52999878
H    23.65201569  11.77173138  51.28445816
H    18.89999962  12.98999977  52.43999863
H    17.35000038  11.21000099  48.15999985
H    19.78000069  10.44999981  47.67000198
H    22.09000015  10.43000031  48.30999756
H    21.04000092  12.03999996  52.14000320
H    12.92000008  13.68999958  51.93000031
H    23.12000084  10.08999920  50.80999756
H    23.85999870  11.21999931  49.68000031
S    11.97000027  12.25999928  47.47000122
C     9.35999966  12.64000034  48.36999893
C    10.67999935  12.58999920  48.63999939
C    11.10000038  12.97000027  49.95999908
C    10.14999962  13.32999992  50.90000153
C     8.80000019  13.42000008  50.61000061
C     7.76999998  13.83999920  51.55000305
C     6.46000004  13.99000072  51.18999863
C     6.12999964  13.73000050  49.86000061
C     6.98999977  13.30999947  48.88000107
C     8.36999989  13.10999966  49.27999878
C    12.55000019  12.89999962  49.99000168
C    13.17000008  12.46000099  48.82999802
C    14.48999977  12.07999992  48.80000305
C     4.76999998  14.09999943  49.50000000
H     4.40866041  13.60857773  48.59665298
H     9.09000015  12.31999969  47.36000061
H    10.44999981  13.78000069  51.84000015
H     8.06999969  14.06000042  52.56999969
H     5.64000034  14.45000076  51.73999786
H     6.63999987  13.25000000  47.84999847
H    14.88000011  11.69999981  47.85999680
H     4.80999994  15.19000053  49.33000183
H     4.03999996  14.00000000  50.31000137
