96

S    12.44999981  17.17000008  44.06999969
C     9.71000004  17.48999977  44.79999924
C    11.02000046  17.15999985  45.18000031
C    11.36000061  16.68000031  46.51000214
C    10.34999943  16.61000061  47.44999695
C     9.01000023  16.87000084  47.09999847
C     7.92999983  16.79999924  48.00000000
C     6.65999985  17.29999924  47.62000275
C     6.32000017  17.64000130  46.30000305
C     7.32999992  17.69000053  45.38999939
C     8.69999981  17.38000107  45.75000000
C    12.76999950  16.56999969  46.65000153
C    13.50999928  16.63999939  45.41999817
C    14.88999939  16.55999947  45.43000031
C     4.92999983  18.25000000  45.96000290
H     4.55987024  17.92785072  44.98669815
H     9.32999992  17.73999977  43.81000137
H    10.59999943  16.36000061  48.47999954
H     8.14999962  16.40999985  48.99000168
H     5.95000029  17.28999901  48.43999863
H     7.13000011  18.02999878  44.38000107
H    15.44999981  16.86000061  44.54999924
H     4.21000004  17.97000122  46.75000000
H     4.94999981  19.34999847  45.93000031
S    16.13000107  15.77000046  49.10999680
C    18.76000023  15.57000065  48.33000183
C    17.48999977  15.86999989  48.00000000
C    17.11000061  16.34000015  46.68000031
C    18.04000092  16.34000015  45.63999939
C    19.38999939  15.98000050  45.90999985
C    20.43999863  16.02000046  44.91000366
C    21.64999962  15.72000027  45.20000076
C    21.97999954  15.39999962  46.56999969
C    21.00000000  15.18000031  47.58999634
C    19.69000053  15.51000023  47.28000259
C    15.64000034  16.46000099  46.58000183
C    14.93000031  16.20000076  47.77999878
C    13.50999928  16.22999954  47.81999969
C    23.43000031  15.31999969  46.88000107
H    23.59198189  15.29182911  47.95753098
H    19.09000015  15.34999943  49.34000015
H    17.85000038  16.61000061  44.61000061
H    20.27000046  16.47999954  43.94000244
H    22.46000099  16.09000015  44.58000183
H    21.32999802  14.93999958  48.59000397
H    13.02999973  16.04999924  48.76999664
H    23.85000038  16.28000069  46.55000305
H    23.85999870  14.42999935  46.39999771
S    11.87000084  17.28000069  51.06999969
C     9.26000023  17.82999992  51.90999985
C    10.47999954  17.28999901  52.19999695
C    10.81999969  16.82999992  53.53000259
C     9.81999969  16.81999969  54.52000046
C     8.52999973  17.34000015  54.18000031
C     7.39000034  17.25000000  55.08999634
C     6.09000015  17.48999977  54.71000290
C     5.95000029  18.02000046  53.43000031
C     6.96000004  18.22000122  52.56000137
C     8.23999977  17.82999992  52.85999680
C    12.30999947  16.61999893  53.55999756
C    13.02000046  16.72999954  52.36000061
C    14.42000008  16.68000031  52.22999954
C     4.51999998  18.42000008  52.93000031
H     4.22449970  17.89548874  52.02133942
H     9.17000008  18.20000076  50.89000320
H    10.06000042  16.44000053  55.51000214
H     7.59999990  16.97000122  56.11999893
H     5.26999998  17.28000069  55.38999939
H     6.85999966  18.60999870  51.56000137
H    14.86999989  16.67000008  51.25000000
H     3.72000003  18.22000122  53.64999771
H     4.42999983  19.50000000  52.81000137
S    15.57000065  15.98000050  56.07999802
C    18.15999985  15.39999962  55.24000168
C    16.92000008  15.95999908  54.93000031
C    16.59000015  16.31999969  53.56999969
C    17.61999893  16.35000038  52.63999939
C    18.89999962  16.01000023  52.97999954
C    19.92000008  16.10999870  52.01000214
C    21.22999954  15.72999954  52.35000229
C    21.48999977  14.96000099  53.50000000
C    20.53999901  14.88999939  54.47999954
C    19.22000122  15.43000031  54.27999878
C    15.14999962  16.54000092  53.41999817
C    14.47999954  16.39999962  54.68999863
C    13.05999947  16.43000031  54.71000290
C    22.92000008  14.63000107  53.90999603
H    23.34595490  15.30733776  54.65018463
H    18.47999954  15.11999989  56.24000168
H    17.38000107  16.77000046  51.66999817
H    19.59000015  16.54999924  51.07999802
H    22.03000069  16.07999992  51.70000076
H    20.88000107  14.65999985  55.47999954
H    12.68000031  16.40999985  55.72000122
H    23.44000053  14.68999958  52.95000076
H    22.86000061  13.55999947  54.12000275
