96

S    12.41000080  17.12000084  44.02000046
C     9.70000076  17.28999901  44.65000153
C    10.95999908  16.93000031  45.00999832
C    11.23999977  16.28999901  46.25000000
C    10.22999954  16.13999939  47.18000031
C     8.94999981  16.68000031  46.91999817
C     7.95000029  16.72999954  47.91999817
C     6.67999983  17.20999908  47.65999603
C     6.34999990  17.68000031  46.33999634
C     7.39000034  17.75000000  45.45999908
C     8.69000053  17.22999954  45.61999893
C    12.69000053  16.11999893  46.47999573
C    13.48000050  16.46999931  45.40999985
C    14.80999947  16.23999977  45.45999908
C     4.94999981  18.02000046  45.93000031
H     4.50218964  17.23100090  45.32580948
H     9.39000034  17.60000038  43.64999771
H    10.31999969  15.55999947  48.09000015
H     8.30999947  16.42000008  48.90999603
H     5.92999983  17.32999992  48.43999863
H     7.18999958  18.12999916  44.45999908
H    15.51000023  16.46999931  44.65999985
H     4.30999994  18.20000076  46.79999924
H     5.03000021  18.96999931  45.38000107
S    15.60999966  15.11999989  49.12000275
C    18.38000107  14.78000069  48.53000259
C    17.10000038  15.21000004  48.16999817
C    16.81999969  15.70000076  46.90999985
C    17.82999992  15.80000019  45.91999817
C    19.10000038  15.36000061  46.27999878
C    20.13000107  15.31000042  45.34999847
C    21.42999840  15.03000069  45.72000122
C    21.70999908  14.45000076  46.95000076
C    20.69999886  14.32999992  47.85999680
C    19.37999916  14.85000038  47.60000229
C    15.44999981  15.90999985  46.63999939
C    14.61999989  15.51000023  47.70000076
C    13.26000023  15.60999966  47.62000275
C    23.12999916  14.09999943  47.35000229
H    23.41539192  14.61955929  48.26472092
H    18.63000107  14.34999943  49.48999786
H    17.68000031  16.15999985  44.91000366
H    19.93999863  15.67000008  44.34999847
H    22.22999954  15.11999989  45.00000000
H    20.78000069  13.82999992  48.81999969
H    12.69000053  15.26000023  48.47999954
H    23.82999802  14.32000065  46.53999710
H    23.12000084  13.00000000  47.42000198
S    16.01000023  12.38000011  52.15000153
C    18.55999947  11.92000008  51.32999802
C    17.21999931  12.03999996  51.00999832
C    16.76000023  11.87000084  49.64000320
C    17.64999962  11.44999981  48.69999695
C    18.98999977  11.30000019  49.01000214
C    19.97999954  10.81999969  48.15000153
C    21.28000069  10.50000000  48.54000092
C    21.80999947  10.82999992  49.80999756
C    20.90999985  11.49000072  50.65999985
C    19.51000023  11.61999893  50.34000015
C    15.31999969  12.10000038  49.55999756
C    14.78999996  12.55000019  50.79999924
C    13.45000076  12.84000015  50.96000290
C    23.16999817  10.40999985  50.28999710
H    23.46065331  10.79281330  51.26829910
H    18.78999901  12.18000031  52.36000061
H    17.34000015  10.88000107  47.83000183
H    19.71999931  10.65999985  47.11000061
H    21.97999954  10.29999924  47.74000168
H    21.18000031  11.63000011  51.70999908
H    13.04999924  13.30000019  51.86000061
H    23.40999985   9.34000015  50.27999878
H    23.88000107  10.84000015  49.58000183
S    11.95000076  12.10999966  47.30999756
C     9.35000038  12.82999992  48.08000183
C    10.70000076  12.69000053  48.37999725
C    11.18000031  12.94999981  49.72000122
C    10.31000042  13.50999928  50.59000015
C     8.97999954  13.68999958  50.30000305
C     8.09000015  14.32999992  51.18999863
C     6.74000025  14.50000000  50.90000153
C     6.30999994  14.17000008  49.55999756
C     7.16000032  13.50999928  48.68000031
C     8.47999954  13.30000019  49.02999878
C    12.56999969  12.58999920  49.81999969
C    13.12000084  12.13000107  48.64999771
C    14.47999954  11.92000008  48.48999786
C     4.85000038  14.34999943  49.13000107
H     4.67547131  14.04981041  48.09679031
H     9.00000000  12.61000061  47.08000183
H    10.69000053  13.86000061  51.55000305
H     8.47000027  14.56999969  52.18000031
H     6.06999969  14.77000046  51.70999908
H     6.83000040  13.17999935  47.70000076
H    14.88999939  11.72999954  47.50000000
H     4.48999977  15.39000034  49.22000122
H     4.09000015  13.85000038  49.73999786
