96

S    12.05000019  16.95999908  43.57999802
C     9.39999962  17.26000023  44.45000076
C    10.65000057  16.77000046  44.64000320
C    11.03000069  16.25000000  45.97000122
C    10.05000019  16.25000000  47.00000000
C     8.75000000  16.77000046  46.79999924
C     7.65999985  16.65999985  47.75000000
C     6.42000008  17.13000107  47.41000366
C     6.11999989  17.64999962  46.12999725
C     7.13000011  17.70000076  45.20000076
C     8.43999958  17.25000000  45.47000122
C    12.46999931  16.11999893  46.09000397
C    13.17000008  16.59000015  44.94999695
C    14.56999969  16.59000015  44.92000198
C     4.72000027  17.92000008  45.75000000
H     4.47765350  17.39966774  44.82337952
H     9.02000046  17.61999893  43.48999786
H    10.26000023  15.72999954  47.93000031
H     7.92999983  16.31000137  48.74000168
H     5.66999960  17.19000053  48.20000076
H     7.00999975  17.97999954  44.15999985
H    15.07999992  16.88999939  44.01000214
H     4.13000011  17.53000069  46.59999847
H     4.55000019  19.00000000  45.73999786
S    15.54999924  15.65000057  48.60000229
C    18.15999985  15.14000034  48.02000046
C    16.94000053  15.65000057  47.64999771
C    16.69999886  15.92000008  46.25999832
C    17.80999947  15.95999908  45.38999939
C    19.07999992  15.47000027  45.77999878
C    20.23999977  15.48999977  44.91000366
C    21.45999908  15.08999920  45.35999680
C    21.54999924  14.42999935  46.65999985
C    20.46999931  14.56999969  47.49000168
C    19.22000122  15.01999950  47.12999725
C    15.29999924  16.20000076  46.03000259
C    14.60000038  15.98000050  47.19999695
C    13.22000027  15.95000076  47.25999832
C    22.95000076  14.06000042  47.15000153
H    23.22105408  14.44625187  48.13256836
H    18.32999992  14.86999989  49.06000137
H    17.84000015  16.31000137  44.36000061
H    20.13000107  15.98000050  43.94000244
H    22.36000061  15.29000092  44.78000259
H    20.65999985  14.44000053  48.55999756
H    12.65999985  15.98000050  48.18999863
H    23.75000000  14.42999935  46.50000000
H    23.09000015  12.97000027  47.18000031
S    15.86999989  12.86999893  51.77999878
C    18.45000076  12.42000008  50.86999893
C    17.12000084  12.38000011  50.63000107
C    16.63999939  12.10000038  49.34999847
C    17.46999931  11.64999962  48.34999847
C    18.85000038  11.56999969  48.59000397
C    19.65999985  11.05000019  47.56999969
C    21.04999924  10.86999989  47.90000153
C    21.54999924  11.23000050  49.19000244
C    20.69999886  11.90999985  50.05000305
C    19.34000015  11.92000008  49.86999893
C    15.21000004  12.39999962  49.22999954
C    14.60999966  12.81999969  50.47999954
C    13.27000046  13.15000057  50.68000031
C    23.02000046  10.93000031  49.55999756
H    23.20028687  11.10335255  50.62091446
H    18.73999977  12.76999950  51.84999847
H    16.98999977  11.13000011  47.52999878
H    19.22999954  10.60999966  46.68000031
H    21.75000000  10.26999950  47.34000397
H    21.04999924  12.20999908  51.04000092
H    12.79000092  13.40999985  51.62000275
H    23.25000000   9.88000011  49.36999893
H    23.69999886  11.56000042  48.96999741
S    11.90000057  12.30999947  46.97999954
C     9.22000027  12.77999973  47.63999939
C    10.57000065  12.75000000  48.01000214
C    11.03999996  13.17000008  49.36000061
C    10.10000038  13.57999992  50.26000214
C     8.75000000  13.55999947  49.89999771
C     7.78999996  14.09999943  50.86999893
C     6.50000000  14.17000008  50.56000137
C     6.05999994  13.83999920  49.23999786
C     6.91999960  13.35000038  48.29000092
C     8.27999973  13.22000027  48.60000229
C    12.46999931  13.03999996  49.50000000
C    13.09000015  12.51999950  48.29999924
C    14.39000034  12.23000050  48.11000061
C     4.61000013  13.78999901  49.01000214
H     4.33087206  13.84725666  47.95790482
H     8.88000011  12.57999992  46.62000275
H    10.29999924  13.99000072  51.24000168
H     8.15999985  14.32999992  51.86999893
H     5.80999947  14.34999943  51.38000107
H     6.46000004  12.89999962  47.42000198
H    14.65000057  11.80999947  47.15000153
H     4.19000006  14.59000015  49.62999725
H     4.25000000  12.89000034  49.52999878
