96

S    11.76000023  17.35000038  43.95000076
C     9.21000004  17.86999893  44.93999863
C    10.36000061  17.18000031  45.06000137
C    10.78999996  16.65999985  46.31000137
C     9.94000053  16.62999916  47.32999802
C     8.60999966  17.09000015  47.12999725
C     7.60999966  17.07999992  48.11000061
C     6.28000021  17.40999985  47.85999680
C     5.96000004  18.00000000  46.56000137
C     6.94000006  18.27000046  45.65000153
C     8.26000023  17.72999954  45.89000320
C    12.23000050  16.47999954  46.35000229
C    12.86000061  16.76000023  45.19000244
C    14.28999996  16.80999947  45.14999771
C     4.48000002  18.22999954  46.17000198
H     4.26433659  17.89212608  45.15637970
H     9.04999924  18.47999954  44.05000305
H    10.19999981  16.06999969  48.22999954
H     7.92000008  16.63999939  49.05000305
H     5.46000004  17.11000061  48.48999786
H     6.71999979  18.70000076  44.66999817
H    14.78999996  17.02000046  44.20999908
H     3.75999975  17.79999924  46.88000107
H     4.34999990  19.30999947  46.23000336
S    15.34000015  15.48999977  48.77999878
C    18.01000023  15.31999969  48.18999863
C    16.76000023  15.71000004  47.75000000
C    16.51000023  16.34000015  46.46999741
C    17.51000023  16.54999924  45.61000061
C    18.81999969  16.04999924  45.93000031
C    19.88999939  15.95999908  45.00000000
C    21.05999947  15.39999962  45.28999710
C    21.32999802  14.92000008  46.56999969
C    20.36000061  15.05000019  47.58999634
C    19.04999924  15.50000000  47.25000000
C    15.01000023  16.38000107  46.25000000
C    14.29999924  16.09000015  47.42000198
C    12.90999985  16.18000031  47.51999664
C    22.70999908  14.47000027  46.95999908
H    22.96688843  15.08367729  47.82342911
H    18.12000084  14.68999958  49.06999969
H    17.30999947  16.68000031  44.54999924
H    19.63000107  16.36999893  44.02000046
H    21.88999939  15.29999924  44.59999847
H    20.46999931  14.60000038  48.56999969
H    12.38999939  15.93000031  48.43999863
H    23.36999893  14.60999966  46.10000229
H    22.88000107  13.38999939  47.08000183
S    15.42000008  13.43000031  52.08000183
C    18.04000092  12.72999954  51.43000031
C    16.72999954  12.79999924  51.06999969
C    16.36000061  12.35000038  49.75999832
C    17.27000046  11.90000057  48.83999634
C    18.60000038  11.96000004  49.22000122
C    19.63000107  11.61000061  48.27999878
C    20.90999985  11.59000015  48.63999939
C    21.30000114  11.97999954  49.99000168
C    20.29000092  12.17000008  50.96000290
C    19.01000023  12.23000050  50.59000015
C    14.96000099  12.46999931  49.58000183
C    14.29999924  12.93000031  50.79999924
C    13.00000000  13.31999969  50.79999924
C    22.70999908  12.51000023  50.30000305
H    23.16706276  11.96425343  51.12544250
H    18.27000046  13.02999973  52.44999695
H    16.95999908  11.49000072  47.88000107
H    19.27999878  11.47999954  47.25000000
H    21.63999939  11.51000023  47.84000015
H    20.52000046  12.53999901  51.95999908
H    12.56000042  13.76000023  51.69000244
H    23.36999893  12.42000008  49.41999817
H    22.63000107  13.56999969  50.56000137
S    11.59999943  12.64000034  47.21000290
C     8.94999981  13.09000015  47.95999908
C    10.29000092  13.07999992  48.23999786
C    10.78999996  13.35999966  49.55999756
C     9.92999935  13.71000099  50.56999969
C     8.55000019  13.86000061  50.25000000
C     7.67000008  14.37000084  51.22000122
C     6.35999966  14.53999996  50.96000290
C     5.82999992  14.04000092  49.72999954
C     6.67000008  13.60999966  48.70999908
C     8.06999969  13.53000069  48.95000076
C    12.20999908  13.15999985  49.66999817
C    12.81999969  12.65999985  48.54999924
C    14.14999962  12.36999989  48.43000031
C     4.36999989  14.14999962  49.34999847
H     4.12955236  13.93869781  48.30805969
H     8.61999989  12.64999962  47.02000046
H    10.36000061  13.96000004  51.53999710
H     8.06999969  14.80000019  52.12999725
H     5.78999996  14.96999931  51.77999878
H     6.25000000  13.35000038  47.72999573
H    14.65999985  12.30000019  47.47000122
H     4.07999992  15.15999985  49.65999985
H     3.82999992  13.50999928  50.05000305
