96

S    12.53999901  17.02000046  44.45999908
C     9.81000042  17.11000061  45.18000031
C    11.07999992  16.82999992  45.47000122
C    11.50000000  16.55999947  46.86000061
C    10.53999996  16.31000137  47.83000183
C     9.19999981  16.69000053  47.50999832
C     8.11999989  16.69999886  48.46000290
C     6.84000015  17.06999969  48.16999817
C     6.53999996  17.31999969  46.81000137
C     7.50999975  17.38999939  45.84999847
C     8.80999947  17.06999969  46.19999695
C    12.94999981  16.61999893  47.05999756
C    13.63999939  16.87000084  45.89000320
C    14.98999977  16.65999985  45.77000046
C     5.14999962  17.64000130  46.47999573
H     4.87741041  17.27415657  45.49007034
H     9.56999969  17.32999992  44.13999939
H    10.81999969  15.97000027  48.81999969
H     8.40999985  16.46000099  49.47999954
H     6.11000013  17.12000084  48.96999741
H     7.30999994  17.65999985  44.80999756
H    15.36000061  16.79000092  44.75999832
H     4.51000023  17.20000076  47.25999832
H     5.03000021  18.72999954  46.49000168
S    16.14999962  15.70000076  49.43000031
C    18.85000038  15.21000004  48.56999969
C    17.54999924  15.65000057  48.27000046
C    17.18000031  16.02000046  46.91999817
C    18.19000053  16.10999870  45.93999863
C    19.50000000  15.70000076  46.18000031
C    20.52999878  15.81999969  45.20999908
C    21.80999947  15.32999992  45.48999786
C    22.11999893  14.80999947  46.81000137
C    21.09999847  14.75000000  47.75000000
C    19.85000038  15.19999981  47.50999832
C    15.75000000  16.28000069  46.86999893
C    15.08999920  16.18000031  48.13999939
C    13.73000050  16.27000046  48.16999817
C    23.55999947  14.35999966  47.22000122
H    23.86222267  14.85901928  48.14072800
H    19.07999992  14.60000038  49.43999863
H    18.02999878  16.42000008  44.92000198
H    20.36000061  16.31999969  44.26000214
H    22.63000107  15.52999973  44.81999969
H    21.25999832  14.44000053  48.77999878
H    13.17000008  15.97000027  49.05000305
H    24.23000145  14.57999992  46.37000275
H    23.57000160  13.27000046  47.29000092
S    16.13000107  13.15000057  52.30999756
C    18.76000023  12.61999989  51.52000046
C    17.39999962  12.56999969  51.32999802
C    16.84999847  12.02000046  50.07999802
C    17.79000092  11.51000023  49.18000031
C    19.18000031  11.59000015  49.36000061
C    20.17999840  11.10000038  48.46000290
C    21.51000023  10.98999977  48.79000092
C    21.94999886  11.56999969  49.97000122
C    21.07999992  12.15999985  50.86000061
C    19.65999985  12.09000015  50.59999847
C    15.43000031  12.18999958  49.89999771
C    14.85999966  12.96000004  50.97000122
C    13.60000038  13.53000069  50.93999863
C    23.42000008  11.31000042  50.40999985
H    23.64164543  11.63889503  51.42528534
H    19.10000038  13.22000027  52.36000061
H    17.39999962  11.10999966  48.25000000
H    19.85000038  10.51000023  47.61000061
H    22.21999931  10.44999981  48.16999817
H    21.45999908  12.39999962  51.84999847
H    13.17000008  14.02999973  51.79999924
H    23.64000130  10.22999954  50.38999939
H    24.10000038  11.87999916  49.77000427
S    12.22000027  12.34000015  47.36999893
C     9.57999992  12.82999992  48.16999817
C    10.90999985  12.89999962  48.40000153
C    11.42000008  13.40000057  49.66999817
C    10.53999996  13.88000011  50.59999847
C     9.11999989  13.81999969  50.37000275
C     8.21000004  14.35999966  51.26999664
C     6.86999989  14.37999916  51.04000092
C     6.44000006  13.83999920  49.80999756
C     7.27999973  13.36999989  48.85000229
C     8.65999985  13.25000000  49.15999985
C    12.84000015  13.25000000  49.85000229
C    13.36999989  12.56999969  48.69999695
C    14.65999985  12.02999973  48.67000198
C     4.99000025  14.13000011  49.52000046
H     4.60002804  13.70391941  48.59561920
H     9.30999947  12.53999901  47.15999985
H    10.90000057  14.23999977  51.56000137
H     8.52999973  14.77000046  52.22999954
H     6.24000025  14.81999969  51.81000137
H     6.81999969  13.17000008  47.88000107
H    15.05000019  11.64999962  47.72999573
H     4.94999981  15.21999931  49.48999786
H     4.28999996  13.81999969  50.31000137
