96

S    12.25999928  17.13000107  44.09000015
C     9.59000015  17.43000031  44.73999786
C    10.81999969  17.01000023  45.10000229
C    11.09000015  16.51000023  46.45999908
C    10.13000011  16.48999977  47.36000061
C     8.85999966  17.02000046  47.08000183
C     7.78999996  16.95000076  48.02000046
C     6.48999977  17.35999870  47.70999908
C     6.19000006  17.78000069  46.32999802
C     7.23999977  17.79000092  45.43000031
C     8.61999989  17.43999863  45.73999786
C    12.51999950  16.31999969  46.58000183
C    13.21000004  16.61000061  45.34999847
C    14.63999939  16.67000008  45.34000015
C     4.73000002  18.22000122  45.97999954
H     4.34857464  17.49120522  45.26482773
H     9.28999996  17.82999992  43.76999664
H    10.31000042  16.18000031  48.39000320
H     8.11999989  16.60000038  48.99000168
H     5.73999977  17.39999962  48.47999954
H     7.00000000  18.02999878  44.40000153
H    15.21999931  16.93000031  44.47000122
H     4.09999990  18.44000053  46.84000015
H     4.78999996  19.12999916  45.37000275
S    15.69000053  15.42000008  48.97999573
C    18.46999931  15.29000092  48.26000214
C    17.15999985  15.59000015  47.95999908
C    16.84999847  16.18999863  46.65000153
C    17.87999916  16.44000053  45.77000046
C    19.13999939  16.10999870  46.10000229
C    20.25000000  16.21000099  45.22999573
C    21.55999947  15.73999977  45.47999954
C    21.71999931  15.07999992  46.76000214
C    20.76000023  15.06999969  47.70000076
C    19.45000076  15.44999981  47.29999924
C    15.36999893  16.28000069  46.47999573
C    14.63999939  15.80999947  47.63999939
C    13.22999954  15.88000107  47.70000076
C    23.05999947  14.55000019  47.00000000
H    23.43300819  15.04495335  47.89665222
H    18.71999931  14.93999958  49.25000000
H    17.61999893  16.77000046  44.77000427
H    19.98999977  16.65999985  44.27000046
H    22.39999962  15.73999977  44.79000092
H    20.79999924  14.85999966  48.75999832
H    12.75000000  15.75000000  48.66000366
H    23.81000137  14.63999939  46.19999695
H    23.02000046  13.48000050  47.22999954
S    12.13999939  17.20000076  50.97000122
C     9.42000008  17.59000015  51.66999817
C    10.64000034  17.06999969  52.02000046
C    10.93999958  16.68000031  53.40999985
C     9.92000008  16.84000015  54.38000107
C     8.60999966  17.17000008  54.00000000
C     7.50999975  17.28000069  54.87999725
C     6.21000004  17.48999977  54.47000122
C     5.98000002  17.92000008  53.11000061
C     7.04999971  18.02999878  52.25999832
C     8.38000011  17.56999969  52.64999771
C    12.39999962  16.54000092  53.61000061
C    13.14000034  16.87999916  52.43000031
C    14.50000000  16.77999878  52.39999771
C     4.59999990  18.37000084  52.63000107
H     4.08705616  17.72701454  51.91476822
H     9.31999969  17.94000053  50.65000153
H    10.14999962  16.53000069  55.38999939
H     7.63999987  17.05000114  55.93000031
H     5.42000008  17.46999931  55.20999908
H     7.03000021  18.22999954  51.18999863
H    14.93000031  16.95999908  51.42000198
H     3.98000002  18.59000015  53.50999832
H     4.73000002  19.38999939  52.25000000
S    15.65999985  15.72999954  55.93000031
C    18.23999977  15.31000042  55.13000107
C    17.01000023  15.80999947  54.86000061
C    16.65999985  16.21999931  53.55999756
C    17.64999962  16.34000015  52.63000107
C    18.96000099  16.01000023  52.85999680
C    20.00999832  16.10000038  51.91999817
C    21.28000069  15.64000034  52.15999985
C    21.61000061  15.14999962  53.43000031
C    20.65000153  14.98000050  54.38999939
C    19.30999947  15.47000027  54.16999817
C    15.24000072  16.45000076  53.47999954
C    14.55999947  16.13000107  54.65999985
C    13.15000057  16.13000107  54.77000427
C    23.02000046  14.75000000  53.76999664
H    23.44731140  15.32940483  54.58840561
H    18.38999939  14.80999947  56.07999802
H    17.43999863  16.69000053  51.62000275
H    19.73999977  16.59000015  50.97999954
H    22.07999992  15.92000008  51.49000168
H    20.93000031  14.47000027  55.31000137
H    12.77999973  15.95999908  55.77999878
H    23.62999916  14.81999969  52.87000275
H    22.98000145  13.68000031  54.02999878
