96

S    12.18999958  16.29999924  44.06000137
C     9.63999939  16.86000061  44.87999725
C    10.88000107  16.38000107  45.20000076
C    11.18999958  16.05999947  46.53999710
C    10.14000034  16.06999969  47.48000336
C     8.80999947  16.38000107  47.15999985
C     7.72000027  16.18000031  48.13999939
C     6.43000031  16.67000008  47.84000015
C     6.19000006  17.23999977  46.47999573
C     7.21000004  17.35000038  45.56000137
C     8.57999992  16.94000053  45.86999893
C    12.61999989  15.93000031  46.65999985
C    13.26000023  16.10999870  45.43000031
C    14.63999939  16.01000023  45.38000107
C     4.76000023  17.57999992  46.00000000
H     4.33265162  17.04400253  45.15254593
H     9.36999989  17.23999977  43.88999939
H    10.38000011  15.76000023  48.50000000
H     7.88999987  15.88999939  49.18000031
H     5.64000034  16.54000092  48.56999969
H     6.98000002  17.84000015  44.61999893
H    15.17000008  16.03999901  44.43000031
H     4.05999994  17.52000046  46.84000015
H     4.76000023  18.64999962  45.77000046
S    15.65000057  15.03000069  49.06999969
C    18.44000053  14.73999977  48.50000000
C    17.18000031  15.01999950  48.08000183
C    16.86000061  15.52999973  46.76000214
C    17.86000061  15.65000057  45.86999893
C    19.14999962  15.25000000  46.22000122
C    20.20000076  15.26000023  45.26000214
C    21.53000069  15.03000069  45.65000153
C    21.81999969  14.48999977  46.91999817
C    20.82999992  14.40000057  47.87000275
C    19.47999954  14.80000019  47.54000092
C    15.38000011  15.70000076  46.56000137
C    14.68000031  15.53999996  47.71999741
C    13.34000015  15.80000019  47.81000137
C    23.26999855  14.14000034  47.21000290
H    23.44570351  14.26650715  48.27828217
H    18.61999893  14.34000015  49.48999786
H    17.56000137  15.88999939  44.85000229
H    19.95000076  15.47999954  44.22999954
H    22.29999924  15.39999962  44.98000336
H    21.11000061  13.94999981  48.81000137
H    12.74000072  15.75000000  48.70999908
H    23.98999977  14.75000000  46.65000153
H    23.51000023  13.10999966  46.90000153
S    11.65999985  16.42000008  50.94999695
C     9.00000000  16.87000084  51.59000015
C    10.31000042  16.53000069  52.01000214
C    10.65999985  16.32999992  53.37999725
C     9.73999977  16.42000008  54.31000137
C     8.43000031  16.73999977  54.01000214
C     7.39000034  16.81999969  54.95999908
C     6.09000015  17.27000046  54.66999817
C     5.75999975  17.57999992  53.29000092
C     6.71999979  17.53999901  52.34000397
C     8.05999947  17.04000092  52.64999771
C    12.07999992  16.14999962  53.53000259
C    12.79999924  16.17000008  52.29999924
C    14.14999962  16.11999893  52.19999695
C     4.36999989  18.04999924  52.88000107
H     4.03171873  17.49324608  52.00610733
H     8.67000008  17.05999947  50.56999969
H     9.88000011  16.13000107  55.34999847
H     7.69000006  16.50000000  55.96000290
H     5.29999971  17.39999962  55.40000153
H     6.54999971  17.95999908  51.36000061
H    14.73000050  16.29999924  51.29000092
H     3.68999982  17.86000061  53.73000336
H     4.34999990  19.13999939  52.78999710
S    15.27999973  15.72000027  55.89000320
C    17.89999962  15.03999901  55.28999710
C    16.67000008  15.38000011  54.88999939
C    16.31999969  15.65000057  53.52000427
C    17.36999893  15.73999977  52.62000275
C    18.68999863  15.47000027  53.02000046
C    19.78999901  15.57999992  52.16999817
C    21.05999947  15.29999924  52.55000305
C    21.24000168  14.70000076  53.79000092
C    20.22999954  14.59000015  54.71000290
C    18.90999985  15.03000069  54.38999939
C    14.91000080  15.82999992  53.27999878
C    14.19999981  15.88000107  54.54000092
C    12.82999992  15.90999985  54.69999695
C    22.60999870  14.40999985  54.26000214
H    22.86695290  14.98100853  55.15220261
H    18.12999916  14.73999977  56.31000137
H    17.07999992  15.93999958  51.59999847
H    19.61000061  15.88999939  51.14999771
H    21.83000183  15.26999950  51.79000092
H    20.42000008  14.11999893  55.66999817
H    12.30999947  15.93999958  55.65000153
H    23.25000000  14.63000107  53.40000153
H    22.78000069  13.35000038  54.48999786
