96

S    11.97000027  16.84000015  43.95999908
C     9.43000031  17.46000099  44.71000290
C    10.59000015  16.80999947  45.05000305
C    10.84000015  16.21999931  46.30000305
C     9.84000015  16.22999954  47.21000290
C     8.56000042  16.72000122  46.81000137
C     7.40999985  16.45000076  47.62000275
C     6.19999981  16.94000053  47.29999924
C     5.98000002  17.64000130  46.07999802
C     7.03999996  17.82999992  45.25000000
C     8.34999943  17.38000107  45.54999924
C    12.22000027  16.05999947  46.50000000
C    12.96000004  16.21999931  45.24000168
C    14.32000065  16.13999939  45.15999603
C     4.63999987  18.02999878  45.58000183
H     4.26884747  17.37873268  44.78867722
H     9.34000015  17.85000038  43.69999695
H    10.01999950  15.73999977  48.16999817
H     7.50000000  15.92000008  48.56999969
H     5.33999968  16.84000015  47.95999908
H     6.84000015  18.45000076  44.38000107
H    14.89999962  16.40999985  44.27999878
H     4.00999975  18.04000092  46.47999573
H     4.63999987  19.05999947  45.20000076
S    15.34999943  15.43000031  49.02000046
C    17.94999886  15.06000042  48.43000031
C    16.72000122  15.47000027  48.00000000
C    16.42000008  15.85999966  46.63999939
C    17.50000000  15.97000027  45.76000214
C    18.81999969  15.47000027  46.12999725
C    19.95000076  15.44999981  45.21999741
C    21.18000031  14.92000008  45.63999939
C    21.37000084  14.42999935  46.95000076
C    20.36000061  14.44000053  47.80000305
C    19.03000069  14.96999931  47.50999832
C    14.98999977  15.86999989  46.37000275
C    14.26000023  15.70000076  47.60000229
C    12.89999962  15.80999947  47.69000244
C    22.69000053  13.94000053  47.45999908
H    23.03709602  14.58460712  48.26753235
H    18.04000092  14.68000031  49.43999863
H    17.26000023  16.25000000  44.72999954
H    19.82999992  15.97000027  44.27000046
H    22.10000038  15.01000023  45.07999802
H    20.42000008  14.15999985  48.85000229
H    12.36999989  15.52999973  48.59000397
H    23.31999969  14.09000015  46.58000183
H    22.60999870  12.88000011  47.71999741
S    11.59000015  17.01000023  50.91999817
C     9.00000000  17.46999931  51.73999786
C    10.22999954  16.94000053  52.04000092
C    10.65000057  16.57999992  53.36999893
C     9.72000027  16.48999977  54.40999985
C     8.36999989  16.95000076  54.09000015
C     7.32999992  17.00000000  55.10000229
C     6.03999996  17.39999962  54.71000290
C     5.73999977  17.86999893  53.40000153
C     6.75000000  17.86000061  52.48000336
C     8.02999973  17.40999985  52.75000000
C    12.07999992  16.56999969  53.52000427
C    12.72999954  16.80999947  52.22999954
C    14.14000034  16.64999962  52.16999817
C     4.26999998  18.19000053  53.06000137
H     3.96658874  17.89381409  52.05585098
H     8.82000065  18.15000153  50.90999985
H     9.92000008  16.22999954  55.44000244
H     7.62000036  16.75000000  56.11000061
H     5.26000023  17.23999977  55.45000076
H     6.51999998  18.23999977  51.49000168
H    14.45000076  16.80999947  51.13999939
H     3.67000008  17.68000031  53.81999969
H     4.01999998  19.23999977  53.27999878
S    15.34999943  15.82999992  55.84999847
C    17.90999985  15.21000004  55.07999802
C    16.70999908  15.77000046  54.79000092
C    16.31999969  16.09000015  53.47999954
C    17.26000023  15.92000008  52.45999908
C    18.63000107  15.55999947  52.76000214
C    19.69000053  15.62000084  51.79000092
C    20.95000076  15.11999989  52.12999725
C    21.27000046  14.70000076  53.44999695
C    20.25000000  14.70999908  54.38000107
C    18.92000008  15.08999920  54.05000305
C    14.93999958  16.43000031  53.31999969
C    14.27000046  16.28000069  54.50000000
C    12.84999943  16.32999992  54.66999817
C    22.65000153  14.34999943  53.95999908
H    22.90311623  14.79294872  54.92323685
H    18.15000153  14.86999989  56.09000397
H    17.02000046  16.13999939  51.43000031
H    19.45999908  15.95999908  50.79000092
H    21.61000061  15.07999992  51.26999664
H    20.48000145  14.68999958  55.44000244
H    12.44999981  15.93999958  55.59999847
H    23.40999985  14.85000038  53.34999847
H    22.89999962  13.28999996  53.86000061
