96

S    12.31999969  16.79000092  44.27999878
C     9.77000046  17.22999954  45.13000107
C    11.05000019  16.88999939  45.44000244
C    11.39999962  16.46999931  46.72000122
C    10.51000023  16.43000031  47.75000000
C     9.17000008  16.80999947  47.44999695
C     8.19999981  16.90000153  48.48999786
C     6.86999989  17.26000023  48.13999939
C     6.44999981  17.64999962  46.77999878
C     7.44000006  17.57999992  45.79000092
C     8.80000019  17.22999954  46.09000397
C    12.84999943  16.29999924  46.81999969
C    13.53999996  16.47999954  45.56000137
C    14.88000011  16.23999977  45.45000076
C     5.00000000  17.93000031  46.45999908
H     4.73590660  17.48984528  45.49842834
H     9.55000019  17.61999893  44.13999939
H    10.80000019  16.09000015  48.74000168
H     8.47999954  16.69000053  49.52000046
H     6.12999964  17.14999962  48.92000198
H     7.13999987  17.89999962  44.79000092
H    15.38000011  16.46000099  44.51000214
H     4.36999989  17.64999962  47.30999756
H     4.88000011  19.02000046  46.51000214
S    15.98000050  15.57999992  49.13999939
C    18.73999977  15.18000031  48.41999817
C    17.38999939  15.44999981  48.09000015
C    17.04000092  15.67000008  46.72999954
C    18.02000046  15.65000057  45.72000122
C    19.37000084  15.34999943  46.00999832
C    20.32999992  15.29000092  44.91000366
C    21.61999893  14.92000008  45.20000076
C    21.97999954  14.68999958  46.52000046
C    21.09000015  14.78999996  47.61000061
C    19.75000000  15.11999989  47.39999771
C    15.55999947  15.88000107  46.59999847
C    14.88000011  15.95000076  47.84999847
C    13.55999947  16.09000015  47.97999954
C    23.45999908  14.42000008  46.90000153
H    23.68424225  14.83231640  47.88377380
H    19.11999893  15.01999950  49.43000031
H    17.73999977  15.86999989  44.68999863
H    19.98999977  15.47000027  43.88999939
H    22.40999985  14.80000019  44.47000122
H    21.32999802  14.56999969  48.64999771
H    13.14000034  16.18000031  48.96999741
H    24.11000061  14.94999981  46.18000031
H    23.57000160  13.32999992  46.86000061
S    16.15999985  13.36999989  51.83000183
C    18.78000069  12.48000050  51.18999863
C    17.40999985  12.61000061  50.87999725
C    16.84999847  12.05999947  49.68999863
C    17.65999985  11.46000004  48.77999878
C    19.09000015  11.36000061  49.02000046
C    20.03000069  10.90000057  48.02999878
C    21.35000038  10.78999996  48.33000183
C    21.86000061  11.21999931  49.56999969
C    21.02999878  11.72000027  50.54000092
C    19.63999939  11.89000034  50.22999573
C    15.42000008  12.35999966  49.47999954
C    14.92000008  13.09000015  50.61999893
C    13.63000011  13.35999966  50.77999878
C    23.29999924  11.03000069  49.86000061
H    23.58893204  11.22950077  50.89189911
H    19.10000038  12.76000023  52.18999863
H    17.31999969  11.26999950  47.76000214
H    19.67000008  10.52000046  47.08000183
H    22.03000069  10.42000008  47.57999802
H    21.22999954  12.03999996  51.56000137
H    13.23999977  13.61999989  51.76000214
H    23.44000053  10.00000000  49.48999786
H    23.85999870  11.64000034  49.13999939
S    12.10999966  12.25999928  47.28000259
C     9.44999981  12.84000015  48.18000031
C    10.78999996  12.86999893  48.34999847
C    11.39000034  13.32999992  49.54999924
C    10.65000057  13.86000061  50.56999969
C     9.26999950  13.88000011  50.45999908
C     8.43999958  14.42999935  51.44000244
C     7.07000017  14.53999996  51.31999969
C     6.47000027  14.00000000  50.13000107
C     7.26000023  13.34000015  49.16999817
C     8.69000053  13.35999966  49.26000214
C    12.84000015  13.12000084  49.64000320
C    13.38000107  12.51999950  48.46000290
C    14.65999985  12.05999947  48.36000061
C     5.03000021  14.35999966  49.82999802
H     4.71886635  13.85087109  48.91781235
H     8.93000031  12.38000011  47.34000397
H    11.18000031  14.21000004  51.45000076
H     8.96000004  14.80999947  52.31999969
H     6.44999981  15.07999992  52.02999878
H     6.88000011  13.00000000  48.20999908
H    15.07999992  11.64000034  47.44999695
H     4.98000002  15.40999985  49.50000000
H     4.28000021  14.14000034  50.59000015
