96

S    12.34000015  16.86000061  44.09000015
C     9.68000031  17.43000031  44.99000168
C    10.95999908  16.88999939  45.20999908
C    11.31000042  16.36999893  46.51000214
C    10.31000042  16.38000107  47.47000122
C     8.98999977  16.87999916  47.27000427
C     7.90000010  16.70999908  48.18000031
C     6.53999996  17.02999878  47.88000107
C     6.28000021  17.71000099  46.66999817
C     7.32999992  17.70000076  45.70999908
C     8.69999981  17.32999992  45.98999786
C    12.71000004  16.06999969  46.63000107
C    13.38999939  16.34000015  45.41999817
C    14.77000046  16.26000023  45.37000275
C     4.86000013  18.19000053  46.36000061
H     4.43049002  17.55289268  45.58687973
H     9.39000034  17.85000038  44.02999878
H    10.53999996  16.07999992  48.47999954
H     8.10999966  16.21000099  49.12000275
H     5.82999992  16.70999908  48.62999725
H     7.14999962  18.11000061  44.72000122
H    15.32999992  16.56999969  44.50000000
H     4.28999996  17.94000053  47.25999832
H     4.80999994  19.27999878  46.19999695
S    15.86999989  15.42000008  49.06000137
C    18.57999992  14.98999977  48.34999847
C    17.28999901  15.34000015  47.97999954
C    16.95000076  15.75000000  46.65000153
C    17.97000122  15.93999958  45.77999878
C    19.22999954  15.36999893  46.07999802
C    20.22999954  15.34999943  45.06999969
C    21.52000046  15.08999920  45.40000153
C    21.90000153  14.65000057  46.70000076
C    20.84000015  14.46000004  47.61000061
C    19.55000114  14.94999981  47.39999771
C    15.47000027  15.86999989  46.51000214
C    14.73000050  15.77000046  47.70999908
C    13.38999939  15.75000000  47.76000214
C    23.34000015  14.27999973  47.14000320
H    23.67977333  14.69929314  48.08702469
H    18.68999863  14.60000038  49.36999893
H    17.77000046  16.20000076  44.73999786
H    20.02000046  15.90000057  44.15000153
H    22.22999954  15.36000061  44.62999725
H    20.95999908  14.01999950  48.59000397
H    12.79999924  15.47000027  48.61999893
H    23.90000153  14.60000038  46.25000000
H    23.36000061  13.19000053  47.18000031
S    15.77000046  13.10999966  52.11999893
C    18.37000084  12.51999950  51.38999939
C    17.05000114  12.46000099  51.07999802
C    16.60000038  12.05999947  49.80999756
C    17.52000046  11.63000011  48.89999771
C    18.89000130  11.68000031  49.20000076
C    19.80999947  11.07999992  48.36000061
C    21.11000061  11.02000046  48.64999771
C    21.55999947  11.33999920  49.95999908
C    20.71000099  11.92000008  50.87999725
C    19.37000084  12.03999996  50.50000000
C    15.14999962  12.34000015  49.61999893
C    14.55000019  12.92000008  50.79000092
C    13.22000027  13.27000046  50.90000153
C    22.98999977  11.10999966  50.31999969
H    23.23723793  11.47732449  51.31601334
H    18.73999977  12.76999950  52.38999939
H    17.13000107  11.19999981  47.97999954
H    19.37000084  10.62999916  47.47000122
H    21.75000000  10.78999996  47.80000305
H    20.98999977  12.20999908  51.88999939
H    12.84000015  13.57999992  51.86999893
H    23.19999886  10.03000069  50.30000305
H    23.62999916  11.59999943  49.56999969
S    11.90000057  12.35999966  47.32999802
C     9.21000004  12.69000053  48.23999786
C    10.57000065  12.81999969  48.43000031
C    10.95999908  13.17000008  49.72999954
C    10.07999992  13.56999969  50.73999786
C     8.64000034  13.53999996  50.44000244
C     7.67000008  13.89999962  51.42000198
C     6.34999990  14.01999950  51.17000198
C     5.92000008  13.73999977  49.82999802
C     6.77999973  13.17999935  48.88000107
C     8.22000027  13.17000008  49.15000153
C    12.42000008  12.97999954  49.80999756
C    13.01000023  12.51999950  48.57999802
C    14.32999992  12.03999996  48.47000122
C     4.55000019  14.15999985  49.31000137
H     4.41836977  13.88211441  48.26427078
H     8.86999989  12.13999939  47.36999893
H    10.48999977  13.78999901  51.72000122
H     8.19999981  14.37999916  52.23999786
H     5.61999989  14.52000046  51.79999924
H     6.47000027  13.05999947  47.84999847
H    14.80000019  11.69999981  47.55000305
H     4.44999981  15.25000000  49.34000015
H     3.75000000  13.61999989  49.84000397
