96

S    12.51999950  16.93000031  44.25000000
C     9.94000053  17.05000114  44.95999908
C    11.18999958  16.73999977  45.38000107
C    11.56000042  16.35000038  46.73999786
C    10.54999924  16.42000008  47.70999908
C     9.19999981  16.82999992  47.36999893
C     8.14999962  16.90999985  48.33000183
C     6.84999990  17.13000107  47.94000244
C     6.46000004  17.31999969  46.63999939
C     7.50999975  17.43000031  45.68999863
C     8.89999962  17.11000061  46.00000000
C    12.94999981  16.34000015  46.86000061
C    13.60999966  16.68000031  45.61000061
C    14.98999977  16.73999977  45.51000214
C     4.94000006  17.50000000  46.29000092
H     4.75460100  17.12207222  45.28456497
H     9.68999958  17.07999992  43.89999771
H    10.77000046  16.14999962  48.74000168
H     8.38999939  16.68000031  49.36999893
H     6.11999989  17.00000000  48.74000168
H     7.23000002  17.67000008  44.66999817
H    15.40999985  16.95999908  44.52999878
H     4.35999966  16.94000053  47.04000092
H     4.61000013  18.53999901  46.35000229
S    16.22999954  15.97000027  49.18000031
C    18.86000061  15.51000023  48.41999817
C    17.63000107  15.97000027  48.09000015
C    17.25000000  16.32999992  46.79999924
C    18.23999977  16.39999962  45.83000183
C    19.55999947  16.06999969  46.13999939
C    20.61000061  16.02000046  45.19000244
C    21.86000061  15.44999981  45.43000031
C    22.13000107  15.14999962  46.77999878
C    21.19999886  15.21000004  47.74000168
C    19.88000107  15.59000015  47.49000168
C    15.80000019  16.50000000  46.63000107
C    15.11999989  16.26000023  47.87000275
C    13.80000019  16.11999893  47.93000031
C    23.59999847  14.93000031  47.12999725
H    23.81940842  15.10552692  48.18315887
H    18.96999931  14.98999977  49.36999893
H    18.00000000  16.68000031  44.80999756
H    20.36999893  16.21999931  44.15000153
H    22.67000008  15.40999985  44.71000290
H    21.47000122  14.85000038  48.72000122
H    13.42000008  15.93000031  48.93000031
H    24.34000015  15.55999947  46.62000275
H    23.82999802  13.86999989  46.95000076
S    12.22000027  17.39999962  50.81999969
C     9.53999996  17.64999962  51.38999939
C    10.77999973  17.29999924  51.83000183
C    11.07999992  16.80999947  53.11999893
C    10.01000023  16.61999893  54.01000214
C     8.71000004  16.97999954  53.61000061
C     7.67000008  17.06999969  54.52999878
C     6.43000031  17.47999954  54.15999985
C     6.11999989  17.97000122  52.84999847
C     7.17000008  18.18000031  52.01000214
C     8.43999958  17.57999992  52.29000092
C    12.51999950  16.60000038  53.34000015
C    13.23999977  17.07999992  52.25999832
C    14.65000057  17.05999947  52.18000031
C     4.72000027  18.38999939  52.44999695
H     4.35986900  17.82099342  51.59288788
H     9.44999981  18.12999916  50.41999817
H    10.06999969  16.27000046  55.04000092
H     7.85000038  16.61000061  55.48999786
H     5.60999966  17.26000023  54.85000229
H     7.00000000  18.67000008  51.04999924
H    15.13000011  17.29999924  51.23000336
H     4.09999990  18.12000084  53.31999969
H     4.59000015  19.47000122  52.34000397
S    15.80000019  15.60999966  55.68000031
C    18.36000061  15.47999954  54.73999786
C    17.06999969  15.90999985  54.51000214
C    16.81999969  16.52000046  53.29000092
C    17.86999893  16.82999992  52.41000366
C    19.19999886  16.36999893  52.65999603
C    20.36000061  16.47999954  51.88999939
C    21.55999947  15.92000008  52.22999954
C    21.80000114  15.29000092  53.48999786
C    20.75000000  15.15999985  54.31999969
C    19.47999954  15.62999916  53.87000275
C    15.38000011  16.60000038  53.23999786
C    14.63000107  16.18999863  54.45999908
C    13.22999954  16.20000076  54.52000046
C    23.12000084  14.77000046  53.88000107
H    23.57277489  15.15704727  54.79285049
H    18.52000046  14.81999969  55.59000015
H    17.61000061  17.34000015  51.49000168
H    20.20000076  17.01000023  50.96000290
H    22.37999916  15.92000008  51.52999878
H    20.84000015  14.68000031  55.30000305
H    12.71999931  15.95000076  55.45000076
H    23.81000137  15.01999950  53.06000137
H    22.93000031  13.68999958  53.85000229
