96

S    12.07999992  16.28000069  44.10999680
C     9.57999992  17.13999939  45.00000000
C    10.78999996  16.50000000  45.27999878
C    11.09000015  16.07999992  46.59999847
C    10.14999962  16.09000015  47.56999969
C     8.89999962  16.64999962  47.37999725
C     7.81000042  16.53000069  48.25000000
C     6.57000017  17.00000000  47.97000122
C     6.30999994  17.50000000  46.65000153
C     7.36999989  17.64000130  45.79000092
C     8.60999966  17.23999977  46.07999802
C    12.48999977  15.59999943  46.73999786
C    13.15999985  15.73999977  45.48999786
C    14.55000019  15.67999935  45.33000183
C     4.90999985  17.92000008  46.18999863
H     4.47241259  17.27091026  45.43151474
H     9.31999969  17.45000076  43.99000168
H    10.43000031  15.54999924  48.47000122
H     7.90999985  16.06999969  49.23999786
H     5.73999977  17.05000114  48.67000198
H     7.13999987  18.01000023  44.79000092
H    15.07999992  15.81999969  44.38999939
H     4.13999987  17.87999916  46.97000122
H     4.96000004  18.90999985  45.72000122
S    15.72000027  14.93999958  49.02000046
C    18.46999931  14.85000038  48.29999924
C    17.15999985  15.05000019  47.94000244
C    16.77000046  15.29000092  46.63000107
C    17.79000092  15.39999962  45.68999863
C    19.17000008  15.29999924  45.97999954
C    20.10999870  15.29999924  44.97000122
C    21.40000153  14.89999962  45.28999710
C    21.77000046  14.59000015  46.63000107
C    20.86000061  14.67000008  47.62000275
C    19.52000046  15.03000069  47.32999802
C    15.34999943  15.36999893  46.50000000
C    14.63999939  15.24000072  47.67000198
C    13.25000000  15.32999992  47.88000107
C    23.23999786  14.14999962  47.08000183
H    23.58929443  14.77174282  47.90433502
H    18.63000107  14.50000000  49.31000137
H    17.71999931  15.67999935  44.64000320
H    19.78000069  15.47999954  43.95000076
H    22.20000076  14.93000031  44.54999924
H    20.98999977  14.37000084  48.66000366
H    12.86999893  15.42000008  48.88999939
H    24.02000046  14.17000008  46.31000137
H    23.22000122  13.09999943  47.39999771
S    15.75000000  12.56999969  52.29999924
C    18.51000023  12.09000015  51.65999985
C    17.13999939  12.03999996  51.31999969
C    16.72000122  11.61000061  50.01999664
C    17.60000038  11.19999981  49.09000015
C    18.93000031  11.38000011  49.34999847
C    19.89999962  10.78999996  48.44999695
C    21.21999931  10.67999935  48.87000275
C    21.73000145  11.30000019  50.00000000
C    20.79000092  11.94000053  50.84000015
C    19.42000008  11.92000008  50.61000061
C    15.26999950  11.79999924  49.80999756
C    14.67000008  12.25000000  51.02000427
C    13.40999985  12.77999973  51.00999832
C    23.22000122  11.51000023  50.20000076
H    23.52041435  11.10700512  51.16718674
H    18.78999901  12.07999992  52.70999908
H    17.36999893  10.62000084  48.20000076
H    19.45999908  10.25000000  47.62000275
H    21.87999916   9.98999977  48.34000015
H    21.11000061  12.39999962  51.77999878
H    13.02999973  13.25000000  51.90999985
H    23.77000046  11.02000046  49.38999939
H    23.45999908  12.56999969  50.06999969
S    11.97999954  11.97000027  47.43000031
C     9.40999985  12.89000034  48.06999969
C    10.72999954  12.67000008  48.43000031
C    11.21999931  12.89999962  49.78000259
C    10.36000061  13.32999992  50.75000000
C     8.98999977  13.63000011  50.38999939
C     8.00000000  14.04999924  51.42000198
C     6.67000008  14.09999943  51.07999802
C     6.25000000  13.76999950  49.71000290
C     7.16000032  13.48000050  48.73000336
C     8.52999973  13.38000107  49.05000305
C    12.67000008  12.57999992  49.85000229
C    13.19000053  12.05000019  48.67000198
C    14.52999973  11.77000046  48.61000061
C     4.78999996  13.89999962  49.38999939
H     4.62064695  13.74475956  48.32448578
H     8.94999981  12.46999931  47.16999817
H    10.67999935  13.40999985  51.77999878
H     8.36000061  14.11000061  52.44999695
H     5.95000029  14.28999996  51.86000061
H     6.85999966  13.19000053  47.72999573
H    15.00000000  11.57999992  47.64999771
H     4.28999996  14.86999989  49.52000046
H     4.11999989  13.28999996  50.00000000
