96

S    11.68000031  16.77999878  44.22999954
C     9.11000061  17.11000061  44.93999863
C    10.31000042  16.79999924  45.31999969
C    10.67999935  16.52000046  46.69000244
C     9.67000008  16.39000130  47.62000275
C     8.36999989  16.75000000  47.25000000
C     7.23999977  16.69999886  48.11000061
C     6.00000000  17.14999962  47.77999878
C     5.78999996  17.53000069  46.43000031
C     6.77999973  17.56000137  45.52999878
C     8.10999966  17.20000076  45.90999985
C    12.10000038  16.27000046  46.79000092
C    12.76000023  16.45000076  45.54999924
C    14.18000031  16.26000023  45.41999817
C     4.38000011  17.87999916  46.02000427
H     4.01673126  17.31330109  45.16268921
H     8.78999996  17.30999947  43.92000198
H     9.89000034  16.05999947  48.62999725
H     7.36999989  16.25000000  49.09000015
H     5.19000006  17.20999908  48.50000000
H     6.52999973  17.85000038  44.51000214
H    14.57999992  16.25000000  44.40999985
H     3.73000002  17.54999924  46.83000183
H     4.21999979  18.94000053  45.81999969
S    15.34999943  15.44000053  49.20999908
C    17.93000031  15.03000069  48.43999863
C    16.70999908  15.36999893  48.06000137
C    16.35000038  15.62999916  46.65000153
C    17.38000107  15.80999947  45.76000214
C    18.64999962  15.52000046  46.18999863
C    19.75000000  15.70000076  45.28999710
C    21.00000000  15.26000023  45.76000214
C    21.28000069  14.68999958  47.02000046
C    20.25000000  14.72000027  47.94000244
C    18.97999954  15.10000038  47.50999832
C    14.86999989  15.86999989  46.59000015
C    14.21000004  15.88000107  47.87000275
C    12.81000042  16.07999992  47.93000031
C    22.65000153  14.25000000  47.35000229
H    22.99900246  14.76623344  48.24431992
H    18.05999947  14.61999989  49.43999863
H    17.14999962  16.20000076  44.77000427
H    19.55000114  16.18000031  44.34000015
H    21.77000046  15.29999924  45.00000000
H    20.43000031  14.32000065  48.94000244
H    12.28999996  16.14999962  48.88000107
H    23.19999886  14.47000027  46.43000031
H    22.73999977  13.17000008  47.54000092
S    11.43000031  17.18000031  51.02000427
C     8.76000023  17.39999962  51.76000214
C     9.98000050  17.02000046  52.11000061
C    10.39000034  16.54000092  53.36000061
C     9.40999985  16.48999977  54.40000153
C     8.11999989  16.95000076  54.09999847
C     7.07000017  17.13999939  55.10000229
C     5.78999996  17.56999969  54.78000259
C     5.51000023  18.01000023  53.47999954
C     6.48000002  18.06999969  52.55000305
C     7.76000023  17.45000076  52.78999710
C    11.82000065  16.28000069  53.46000290
C    12.50000000  16.68000031  52.29000092
C    13.94999981  16.77000046  52.25999832
C     4.07999992  18.29000092  53.04000092
H     3.75938487  17.62027168  52.24202347
H     8.56999969  17.92000008  50.81999969
H     9.61999989  16.13999939  55.40999985
H     7.26000023  16.87000084  56.12999725
H     5.00999975  17.54999924  55.52999878
H     6.17999983  18.34000015  51.55000305
H    14.46000004  17.05999947  51.33999634
H     3.37000012  18.12999916  53.86000061
H     4.01999998  19.36000061  52.81000137
S    15.03000069  15.46000004  55.84999847
C    17.84000015  15.32999992  55.19000244
C    16.51000023  15.71000004  54.89999771
C    16.13999939  16.28000069  53.62999725
C    17.13000107  16.57999992  52.72999573
C    18.44000053  16.13999939  52.95999908
C    19.37000084  16.11999893  51.93000031
C    20.68000031  15.65999985  52.14000320
C    21.12999916  15.19000053  53.41999817
C    20.17999840  15.08999920  54.40999985
C    18.84000015  15.57000065  54.20999908
C    14.67000008  16.29999924  53.40000153
C    13.89000034  15.88000107  54.52999878
C    12.53999901  15.86999989  54.59000015
C    22.56999969  14.85000038  53.75000000
H    22.82437706  15.14677238  54.76750565
H    18.09000015  14.73000050  56.05999756
H    16.88999939  16.94000053  51.72999954
H    19.03000069  16.40999985  50.93999863
H    21.30000114  15.76000023  51.25999832
H    20.42000008  14.52999973  55.31000137
H    12.02999973  15.62999916  55.52000046
H    23.22999954  15.47000027  53.13000107
H    22.69000053  13.78000069  53.52000427
