96

S    11.94000053  16.92000008  44.12000275
C     9.23999977  17.50000000  44.68999863
C    10.47999954  16.95999908  45.06999969
C    10.65999985  16.39000130  46.42000198
C     9.61000061  16.35000038  47.30999756
C     8.36000061  16.87999916  46.95000076
C     7.25000000  16.84999847  47.87000275
C     5.98000002  17.25000000  47.45999908
C     5.82000017  17.86999893  46.25000000
C     6.83000040  18.04000092  45.31999969
C     8.14999962  17.50000000  45.59999847
C    12.09000015  16.22999954  46.72000122
C    12.89999962  16.40999985  45.52000046
C    14.30999947  16.36000061  45.47000122
C     4.42000008  18.38000107  45.75000000
H     4.05230427  17.83552933  44.88026047
H     9.06999969  18.07999992  43.77999878
H     9.76000023  15.93000031  48.29999924
H     7.36000013  16.62999916  48.93000031
H     5.26000023  17.18000031  48.26000214
H     6.63000011  18.53999901  44.36999893
H    14.96000099  16.68000031  44.66999817
H     3.63999987  18.27999878  46.51000214
H     4.55999994  19.40999985  45.38999939
S    15.25000000  15.36999893  49.16999817
C    18.01000023  15.08999920  48.44999695
C    16.67000008  15.44000053  48.15000153
C    16.28999901  15.76000023  46.81000137
C    17.23999977  15.85999966  45.79999924
C    18.57999992  15.47999954  46.04999924
C    19.57999992  15.48999977  45.04000092
C    20.86999893  15.10000038  45.37000275
C    21.24000168  14.80000019  46.75000000
C    20.32999992  14.93999958  47.70999908
C    18.93000031  15.07999992  47.37999725
C    14.88999939  15.93000031  46.63000107
C    14.14999962  15.84000015  47.84999847
C    12.76000023  15.95999908  47.90000153
C    22.69000053  14.34000015  47.14000320
H    23.05965614  14.92405701  47.98281479
H    18.37000084  14.80999947  49.43000031
H    16.95999908  16.14999962  44.79000092
H    19.38999939  15.67000008  43.97999573
H    21.61999893  15.08999920  44.58000183
H    20.51000214  14.72000027  48.75999832
H    12.30000019  15.77999973  48.87000275
H    23.32999992  14.32999992  46.25000000
H    22.65999985  13.34000015  47.57999802
S    11.42000008  16.84999847  51.17000198
C     8.76999950  17.32999992  51.86999893
C     9.96999931  16.94000053  52.27000427
C    10.32999992  16.59000015  53.62999725
C     9.27999973  16.45000076  54.54999924
C     7.96000004  16.84999847  54.13999939
C     6.98000002  16.79999924  55.12000275
C     5.71000004  17.34000015  54.80999756
C     5.44000053  17.71000099  53.47000122
C     6.40999985  17.86999893  52.52999878
C     7.71000004  17.43000031  52.87000275
C    11.82000065  16.42000008  53.80000305
C    12.51999950  16.61000061  52.56000137
C    13.89000034  16.61999893  52.47000122
C     4.00000000  18.15000153  53.04000092
H     3.70149541  17.53216553  52.19308090
H     8.57999992  17.70000076  50.86999893
H     9.51000023  16.14999962  55.56999969
H     7.26000023  16.39000130  56.09000397
H     4.99000025  17.56000137  55.59999847
H     6.17000008  18.38000107  51.59999847
H    14.40000057  16.70999908  51.52000046
H     3.28999996  18.07999992  53.87000275
H     3.95000005  19.20999908  52.77000046
S    14.94999981  15.77999973  56.16000366
C    17.60000038  15.29999924  55.45999908
C    16.36000061  15.73999977  55.13000107
C    16.01000023  16.13000107  53.80000305
C    16.98999977  16.32999992  52.90000153
C    18.34000015  15.88999939  53.22999954
C    19.40000153  15.81999969  52.25999832
C    20.69000053  15.44999981  52.56999969
C    20.98999977  15.03000069  53.93000031
C    19.98999977  14.96999931  54.88999939
C    18.63000107  15.38000011  54.52999878
C    14.60999966  16.38000107  53.61000061
C    13.94999981  16.15999985  54.78000259
C    12.56999969  16.04999924  54.88999939
C    22.39000130  14.61999989  54.22999954
H    22.80029297  15.10355949  55.11652756
H    17.79999924  14.77000046  56.38000107
H    16.77999878  16.75000000  51.91999817
H    19.27999878  16.03999901  51.20999908
H    21.42999840  15.31999969  51.79000092
H    20.17999840  14.55999947  55.87999725
H    11.92000008  15.65000057  55.65999985
H    23.03999901  14.82999992  53.36999893
H    22.40999985  13.52000046  54.31000137
