96

S    12.76999950  16.82999992  44.26000214
C     9.96000004  16.90000153  44.56999969
C    11.21999931  16.55999947  45.06000137
C    11.46000004  16.09000015  46.40999603
C    10.42000008  16.03000069  47.25999832
C     9.13999939  16.38000107  46.86000061
C     8.11999989  16.28000069  47.72999573
C     6.80999994  16.67000008  47.37999725
C     6.51000023  17.23999977  46.09000397
C     7.57000017  17.31999969  45.20999908
C     8.89000034  16.88999939  45.52000046
C    12.84000015  15.93999958  46.68000031
C    13.71000099  16.28999901  45.59999847
C    15.03000069  16.34000015  45.63000107
C     5.14999962  17.73999977  45.76000214
H     4.71617460  17.13548851  44.96347046
H     9.70000076  17.11000061  43.53000259
H    10.72000027  15.67999935  48.23999786
H     8.23000050  16.04999924  48.79000092
H     6.02999973  16.67000008  48.13999939
H     7.36999989  17.67000008  44.19000244
H    15.62000084  16.67000008  44.78000259
H     4.53000021  17.61999893  46.65999985
H     5.15999985  18.81000137  45.52000046
S    15.86999989  15.07999992  49.27999878
C    18.53999901  14.56999969  48.61000061
C    17.32999992  15.18000031  48.31999969
C    17.06999969  15.57000065  47.00000000
C    18.07999992  15.62999916  46.09000397
C    19.34999847  15.18000031  46.42000198
C    20.36999893  15.19000053  45.47999954
C    21.59000015  14.85000038  45.86000061
C    21.88999939  14.44000053  47.15000153
C    20.89999962  14.37999916  48.04999924
C    19.55999947  14.68000031  47.70000076
C    15.69000053  15.93000031  46.76000214
C    14.89999962  15.59999943  47.90999985
C    13.48000050  15.65000057  47.90999985
C    23.26999855  13.96000004  47.51999664
H    23.58626175  14.45278358  48.43936539
H    18.59000015  14.06999969  49.58000183
H    17.94000053  15.76000023  45.01999664
H    20.23999977  15.48999977  44.43999863
H    22.42000198  15.05000019  45.18000031
H    21.04000092  13.93000031  49.02999878
H    12.82999992  15.57000065  48.76999664
H    23.92999840  14.32999992  46.72000122
H    23.26999855  12.86000061  47.51999664
S    11.59000015  16.80999947  50.86000061
C     8.96000004  17.30999947  51.62000275
C    10.15999985  16.77999878  51.91999817
C    10.47999954  16.31999969  53.27999878
C     9.57999992  16.46999931  54.29999924
C     8.31999969  17.01000023  53.99000168
C     7.37999964  17.14999962  54.97000122
C     6.07999992  17.59000015  54.65999985
C     5.75000000  18.04999924  53.36000061
C     6.71000004  17.97999954  52.39999771
C     8.01999950  17.42000008  52.67000198
C    11.87999916  16.04999924  53.36000061
C    12.58999920  16.35000038  52.21000290
C    13.93000031  16.56999969  52.16999817
C     4.32000017  18.35000038  53.06999969
H     3.96489477  17.73400116  52.24383545
H     8.57999992  17.80999947  50.73999786
H     9.82999992  16.15999985  55.30000305
H     7.55000019  16.76000023  55.97000122
H     5.32000017  17.28999901  55.38000107
H     6.44000006  18.12000084  51.35000229
H    14.44000053  16.92000008  51.27999878
H     3.74000025  18.26000023  54.00000000
H     4.17000008  19.40000153  52.80000305
S    15.01000023  15.47999954  55.80999756
C    17.70000076  15.31999969  55.15999603
C    16.43000031  15.60999966  54.77000427
C    16.04999924  16.07999992  53.47000122
C    17.00000000  16.21999931  52.51999664
C    18.34000015  15.85999966  52.83000183
C    19.23999977  15.69000053  51.83000183
C    20.52999878  15.26999950  52.02999878
C    20.90999985  14.78000069  53.33000183
C    20.00999832  14.86999989  54.34999847
C    18.75000000  15.50000000  54.19000244
C    14.59000015  16.15999985  53.29000092
C    13.90999985  15.85000038  54.45000076
C    12.51999950  15.85000038  54.54000092
C    22.30999947  14.22000027  53.66000366
H    22.73711395  14.83616543  54.45121384
H    17.87999916  14.77000046  56.06999969
H    16.84000015  16.39000130  51.45999908
H    18.92000008  16.01000023  50.84000015
H    21.28999901  15.11999989  51.25999832
H    20.29999924  14.39000034  55.27999878
H    11.95000076  15.75000000  55.45999908
H    22.98000145  14.27000046  52.78999710
H    22.22999954  13.17000008  53.97999573
