96

S    12.09000015  17.30999947  44.09000015
C     9.43000031  17.45000076  44.72999954
C    10.65999985  16.95000076  45.06000137
C    11.02000046  16.40999985  46.33999634
C    10.05000019  16.42000008  47.30999756
C     8.76000023  16.90999985  47.05999756
C     7.68000031  16.92000008  48.00000000
C     6.42000008  17.36999893  47.71999741
C     6.12999964  17.90999985  46.43000031
C     7.11000013  18.04000092  45.48999786
C     8.43000031  17.45000076  45.76000214
C    12.48000050  16.36999893  46.49000168
C    13.17999935  16.81999969  45.40000153
C    14.55999947  16.75000000  45.26000214
C     4.71000004  18.37000084  46.17000198
H     4.33237696  17.75999451  45.34939575
H     9.18000031  17.97000122  43.80000305
H    10.27999973  15.90000057  48.23999786
H     7.92000008  16.59000015  49.01000214
H     5.64000034  17.39999962  48.47000122
H     7.03000021  18.43000031  44.47999954
H    14.98999977  17.07999992  44.31000137
H     4.11999989  18.15999985  47.06999969
H     4.57999992  19.37999916  45.77999878
S    15.53999996  15.51000023  48.88999939
C    18.17000008  15.03000069  48.29000092
C    16.98999977  15.48999977  47.90999985
C    16.69999886  16.02000046  46.58000183
C    17.78000069  16.27000046  45.75000000
C    19.09000015  15.88000107  46.07999802
C    20.20000076  16.15999985  45.20000076
C    21.45999908  15.76000023  45.51000214
C    21.60000038  14.91000080  46.70000076
C    20.58000183  14.67000008  47.61000061
C    19.25000000  15.11000061  47.30999756
C    15.27999973  16.25000000  46.35000229
C    14.55999947  15.86999989  47.51999664
C    13.17999935  15.95999908  47.62000275
C    22.96999931  14.40999985  47.05999756
H    23.39501381  14.88378525  47.94486618
H    18.30000114  14.68999958  49.31000137
H    17.69000053  16.90999985  44.87999725
H    20.00999832  16.57999992  44.22000122
H    22.13000107  15.86999989  44.66999817
H    20.86000061  14.18000031  48.54000092
H    12.71000004  15.78999996  48.57999802
H    23.52999878  14.59000015  46.13999939
H    22.88999939  13.32999992  47.21000290
S    16.05999947  12.68000031  52.11000061
C    18.73999977  12.32999992  51.22000122
C    17.42000008  12.23999977  50.98999786
C    16.90000153  11.89000034  49.68999863
C    17.79000092  11.64999962  48.64999771
C    19.20999908  11.61999893  48.94000244
C    20.15999985  11.13999939  47.95999908
C    21.48999977  10.98999977  48.29999924
C    21.87000084  11.26000023  49.65000153
C    20.95999908  11.77999973  50.58000183
C    19.62000084  12.00000000  50.20999908
C    15.47999954  12.10999966  49.59000015
C    14.92000008  12.58999920  50.75000000
C    13.73000050  13.23999977  50.73999786
C    23.31999969  11.05999947  50.10000229
H    23.51649475  11.26351261  51.15265274
H    19.05999947  12.46000099  52.25000000
H    17.36999893  11.36000061  47.69000244
H    19.93000031  10.81999969  46.95000076
H    22.20000076  10.47999954  47.65999603
H    21.12999916  11.97999954  51.63999939
H    13.43999958  13.81000042  51.62000275
H    23.68000031  10.08999920  49.71000290
H    23.81000137  11.90999985  49.61999893
S    12.18999958  11.97999954  47.36999893
C     9.61999989  12.81000042  48.18999863
C    10.97000027  12.84999943  48.37999725
C    11.44000053  13.32999992  49.65000153
C    10.60999966  13.76999950  50.61999893
C     9.19999981  13.89000034  50.33000183
C     8.25000000  14.42999935  51.27999878
C     6.94000006  14.44000053  50.98999786
C     6.43000031  13.89000034  49.75000000
C     7.34000015  13.43000031  48.88999939
C     8.71999931  13.35999966  49.13999939
C    12.88000011  13.10999966  49.68000031
C    13.36999989  12.41000080  48.55999756
C    14.70999908  11.98999977  48.46000290
C     4.99000025  14.04999924  49.38000107
H     4.76403046  13.63336754  48.39844513
H     9.19999981  12.42000008  47.27000427
H    11.23000050  14.25000000  51.38000107
H     8.52000046  14.78000069  52.28000259
H     6.17999983  14.77000046  51.70000076
H     7.11000013  13.07000065  47.88999939
H    15.08999920  11.64000034  47.50999832
H     4.76000023  15.11000061  49.29999924
H     4.30000019  13.63000011  50.13000107
