96

S    12.42000008  16.79000092  44.27999878
C     9.67000008  17.12000084  44.98000336
C    10.97000027  16.73999977  45.31999969
C    11.28999901  16.25000000  46.66999817
C    10.19000053  15.98000050  47.54000092
C     8.89999962  16.45000076  47.25000000
C     7.85000038  16.23999977  48.15999985
C     6.54999971  16.56999969  47.78999710
C     6.30000019  17.26000023  46.55000305
C     7.31999969  17.32999992  45.61999893
C     8.63000011  16.97000122  45.91999817
C    12.67000008  16.09000015  46.88000107
C    13.40999985  16.34000015  45.61999893
C    14.78999996  16.34000015  45.56000137
C     4.84000015  17.56000137  46.18999863
H     4.50058794  17.04381180  45.29197311
H     9.52000046  17.77000046  44.12000275
H    10.31999969  15.44999981  48.47999954
H     8.10000038  15.70000076  49.06999969
H     5.69000006  16.52000046  48.44999695
H     7.13999987  17.64999962  44.59999847
H    15.25000000  16.45000076  44.58000183
H     4.26999998  17.28000069  47.06999969
H     4.94999981  18.63999939  46.03000259
S    16.02000046  15.85999966  49.27000046
C    18.64999962  15.36000061  48.48999786
C    17.38999939  15.81999969  48.16999817
C    17.04000092  16.00000000  46.77999878
C    17.95999908  16.05999947  45.80999756
C    19.27999878  15.59000015  46.13999939
C    20.23999977  15.39000034  45.11000061
C    21.47000122  14.96999931  45.45999908
C    21.81999969  14.73999977  46.81000137
C    20.88000107  14.75999928  47.84000015
C    19.59000015  15.18000031  47.45999908
C    15.57999992  16.13000107  46.66999817
C    14.93000031  15.90999985  47.85999680
C    13.53999996  15.75000000  48.00000000
C    23.25000000  14.72000027  47.11999893
H    23.44614029  15.18492317  48.08616638
H    18.86000061  15.07999992  49.51000214
H    17.67000008  16.18000031  44.77000427
H    19.95000076  15.59999943  44.09000015
H    22.26000023  15.15999985  44.73999786
H    21.18000031  14.75000000  48.88000107
H    13.05999947  15.27999973  48.85000229
H    23.78000069  15.26999950  46.33999634
H    23.74000168  13.73999977  47.11000061
S    11.54999924  16.98999977  50.75000000
C     8.89999962  17.27000046  51.45999908
C    10.13000011  16.84999847  51.75000000
C    10.47999954  16.31000137  53.04999924
C     9.48000050  16.27000046  53.99000168
C     8.17000008  16.67000008  53.68999863
C     7.14999962  16.54999924  54.62999725
C     5.92999983  17.13999939  54.41999817
C     5.60999966  17.70000076  53.11999893
C     6.57999992  17.69000053  52.11000061
C     7.88999987  17.13000107  52.43000031
C    11.94000053  16.03999901  53.16999817
C    12.67000008  16.40999985  52.02000046
C    14.09000015  16.53000069  52.00000000
C     4.26000023  18.25000000  52.81000137
H     3.87733984  17.81064987  51.88878250
H     8.80000019  17.88999939  50.56999969
H     9.55000019  15.77999973  54.94999695
H     7.49000025  16.21999931  55.61999893
H     5.13999987  17.21999931  55.15999603
H     6.50000000  18.20999908  51.16000366
H    14.65000057  16.88999939  51.13999939
H     3.65999985  17.97999954  53.68999863
H     4.35999966  19.34000015  52.77000046
S    15.00000000  16.04999924  55.75000000
C    17.79000092  15.90000057  55.20000076
C    16.48999977  16.13000107  54.73999786
C    16.20000076  16.40999985  53.37999725
C    17.27000046  16.61999893  52.50999832
C    18.60999870  16.39999962  52.93000031
C    19.69000053  16.22999954  52.02000046
C    20.88000107  15.62999916  52.31999969
C    21.07999992  15.19999981  53.67000198
C    20.10999870  15.31000042  54.59000015
C    18.82999992  15.85000038  54.23999786
C    14.77000046  16.25000000  53.18000031
C    14.01000023  15.93999958  54.34000015
C    12.67000008  15.80000019  54.33000183
C    22.43999863  14.77000046  54.13000107
H    22.75512886  15.26720428  55.04737854
H    17.97999954  15.34999943  56.11999893
H    16.86000061  16.84000015  51.52999878
H    19.47000122  16.60000038  51.02000427
H    21.63999939  15.44999981  51.56000137
H    20.30999947  15.00000000  55.61000061
H    12.13999939  15.77999973  55.28999710
H    23.15999985  14.89999962  53.30999756
H    22.40999985  13.68999958  54.29000092
