96

S    12.28999996  16.62999916  44.25000000
C     9.64999962  17.02000046  44.94999695
C    10.92000008  16.61999893  45.31999969
C    11.21000099  16.20000076  46.63999939
C    10.21000004  16.03000069  47.50999832
C     8.88000011  16.53000069  47.23999786
C     7.79999971  16.56999969  48.15000153
C     6.57999992  17.11000061  47.71999741
C     6.42000008  17.67000008  46.40999603
C     7.44999981  17.56000137  45.47999954
C     8.64999962  16.95000076  45.90999985
C    12.64999962  15.95000076  46.73999786
C    13.43000031  16.18000031  45.54000092
C    14.78999996  16.04999924  45.40999985
C     5.01999950  17.97999954  46.00000000
H     4.71784544  17.43190575  45.10758972
H     9.52999973  17.67000008  44.08000183
H    10.26999950  15.39000034  48.37999725
H     7.90000010  16.23999977  49.18000031
H     5.84000015  17.13999939  48.50999832
H     7.40999985  17.92000008  44.45999908
H    15.36000061  16.39999962  44.55999756
H     4.40000010  17.69000053  46.86000061
H     4.77999973  19.04999924  45.90999985
S    15.80999947  15.18000031  49.25000000
C    18.47999954  14.80999947  48.53000259
C    17.19000053  15.17000008  48.11999893
C    16.92000008  15.47999954  46.73999786
C    17.92000008  15.57999992  45.86999893
C    19.27999878  15.26999950  46.24000168
C    20.23999977  15.31000042  45.27000046
C    21.54999924  14.91000080  45.50000000
C    21.86000061  14.48999977  46.81000137
C    20.94000053  14.42000008  47.74000168
C    19.57999992  14.80000019  47.54000092
C    15.51000023  15.69000053  46.53999710
C    14.80999947  15.39999962  47.77999878
C    13.42000008  15.52000046  47.84999847
C    23.22000122  14.09999943  47.14000320
H    23.54214478  14.50439358  48.09958267
H    18.71999931  14.37000084  49.48999786
H    17.85000038  15.85000038  44.81999969
H    19.97999954  15.72000027  44.29000092
H    22.11999893  14.75000000  44.59000015
H    21.28999901  14.11999893  48.73000336
H    12.89999962  15.43000031  48.79000092
H    23.81000137  14.37000084  46.25000000
H    23.36999893  13.01000023  47.14000320
S    16.18000031  12.79000092  52.29999924
C    18.85000038  12.22000027  51.44000244
C    17.50000000  12.20999908  51.19999695
C    16.97000122  11.69000053  49.99000168
C    17.79999924  11.09000015  49.09000015
C    19.20999908  10.98000050  49.31999969
C    20.06000137  10.57000065  48.23999786
C    21.38999939  10.70000076  48.43999863
C    21.96000099  11.09000015  49.62999725
C    21.12999916  11.51999950  50.59000015
C    19.71999931  11.52999973  50.52999878
C    15.54999924  12.06999969  49.81999969
C    14.96999931  12.61999989  50.98999786
C    13.60999966  12.96000004  51.04000092
C    23.44000053  11.05999947  49.93000031
H    23.56649590  11.18649578  51.00521851
H    19.12999916  12.75000000  52.36000061
H    17.47999954  10.78999996  48.09000015
H    19.78999901  10.13000011  47.29000092
H    22.10000038  10.29999924  47.71999741
H    21.47000122  12.05000019  51.47999573
H    13.22999954  13.52000046  51.88999939
H    23.81999969  10.06000042  49.68999863
H    24.09000015  11.80999947  49.45999908
S    12.13000107  12.01000023  47.47000122
C     9.44999981  12.43999958  48.09000015
C    10.81999969  12.46999931  48.47999954
C    11.30000019  12.76000023  49.82999802
C    10.34999943  13.23999977  50.65999985
C     8.97000027  13.27999973  50.38000107
C     7.97999954  13.86999989  51.23000336
C     6.67999983  14.17000008  50.86000061
C     6.23000050  13.64999962  49.65000153
C     7.13999987  13.01000023  48.82999802
C     8.52999973  12.79000092  49.10999680
C    12.77999973  12.68000031  50.00999832
C    13.34000015  12.13000107  48.86000061
C    14.68999958  11.79999924  48.75999832
C     4.84000015  13.86999989  49.22000122
H     4.61839008  13.37507153  48.27446747
H     9.13999939  12.05999947  47.11999893
H    10.69000053  13.66000080  51.59999847
H     8.38000011  14.39000034  52.09999847
H     6.07999992  14.82999992  51.46999741
H     6.86999989  12.82999992  47.78999710
H    15.14999962  11.36999989  47.87000275
H     4.55999994  14.93000031  49.09999847
H     4.23999977  13.47000027  50.05000305
