96

S    12.00000000  16.70999908  44.29999924
C     9.39000034  17.38000107  44.98000336
C    10.59999943  16.76000023  45.33000183
C    10.88000107  16.43000031  46.65000153
C     9.84000015  16.38000107  47.56999969
C     8.56000042  16.86000061  47.22999954
C     7.53999996  17.02000046  48.15999985
C     6.38000011  17.64999962  47.72999573
C     6.14000034  17.98999977  46.31000137
C     7.17000008  17.84000015  45.41999817
C     8.39999962  17.36999893  45.89000320
C    12.30000019  16.04999924  46.84999847
C    13.02000046  16.20000076  45.66999817
C    14.42000008  16.07999992  45.63000107
C     4.77999973  18.53999901  45.86999893
H     4.27899647  17.86258698  45.17847443
H     9.42000008  17.71999931  43.95000076
H    10.05000019  16.13999939  48.61000061
H     7.67000008  16.73999977  49.19000244
H     5.68000031  17.93000031  48.50999832
H     7.03999996  18.15999985  44.38999939
H    14.89999962  16.15999985  44.65999985
H     4.01999998  18.79999924  46.60999680
H     4.94000006  19.44000053  45.27000046
S    15.53999996  15.27999973  49.27999878
C    18.13999939  14.86999989  48.54999924
C    16.90000153  15.26999950  48.20999908
C    16.56999969  15.75000000  46.86000061
C    17.54999924  15.69000053  45.91999817
C    18.86999893  15.34999943  46.25999832
C    19.92000008  15.25000000  45.27999878
C    21.18000031  14.80999947  45.59999847
C    21.45000076  14.35999966  46.91999817
C    20.46999931  14.48999977  47.88999939
C    19.14999962  14.93000031  47.58999634
C    15.11000061  15.93000031  46.83000183
C    14.42999935  15.73999977  47.95999908
C    13.03999996  15.75000000  48.04000092
C    22.85000038  13.96000004  47.29000092
H    23.25305939  14.55398369  48.11026001
H    18.31999969  14.63999939  49.59999847
H    17.31999969  15.85000038  44.86999893
H    19.69000053  15.52000046  44.26000214
H    21.97000122  14.96999931  44.86999893
H    20.69999886  14.40000057  48.94000244
H    12.58999920  15.48999977  49.00000000
H    23.48999977  13.89000034  46.39999771
H    22.84000015  12.96000004  47.75000000
S    11.76000023  16.77000046  51.11999893
C     9.07999992  16.84999847  51.76000214
C    10.39000034  16.56999969  52.16999817
C    10.78999996  16.13000107  53.50000000
C     9.73999977  16.07999992  54.40999985
C     8.47999954  16.54999924  54.08000183
C     7.40999985  16.57999992  55.06000137
C     6.11000013  17.00000000  54.72999954
C     5.77000046  17.39999962  53.39000320
C     6.80000019  17.31999969  52.43999863
C     8.10999966  16.88999939  52.75000000
C    12.25000000  16.09000015  53.68000031
C    12.89000034  16.44000053  52.50999832
C    14.29999924  16.48999977  52.47000122
C     4.32999992  17.81999969  53.09000015
H     4.01507950  17.36193466  52.15239716
H     8.89999962  17.29999924  50.79000092
H     9.94000053  15.77000046  55.43000031
H     7.62000036  16.03000069  55.97000122
H     5.35000038  17.07999992  55.48999786
H     6.60000038  17.61999893  51.40999603
H    14.88000011  16.69999886  51.56999969
H     3.61999989  17.51000023  53.87000275
H     4.28000021  18.90999985  52.91999817
S    15.42000008  15.67000008  56.18999863
C    17.97999954  15.05000019  55.33000183
C    16.79000092  15.57999992  55.04000092
C    16.45000076  15.92000008  53.70999908
C    17.35999870  15.81999969  52.72999573
C    18.71000099  15.34999943  53.06999969
C    19.79999924  15.38000011  52.11999893
C    21.11000061  15.17000008  52.56999969
C    21.42000008  14.78999996  53.85000229
C    20.42000008  14.68000031  54.79999924
C    19.05999947  14.98999977  54.40999985
C    15.03000069  16.22999954  53.60000229
C    14.37999916  16.05999947  54.81999969
C    12.97999954  16.03000069  54.86000061
C    22.85000038  14.53999996  54.16999817
H    23.05512428  14.92903042  55.16733551
H    18.29000092  14.85999966  56.36000061
H    17.14999962  16.15999985  51.72000122
H    19.57999992  15.70000076  51.10000229
H    21.87999916  15.36999893  51.84000015
H    20.51000214  14.22999954  55.79000092
H    12.44999981  15.70000076  55.75000000
H    23.50000000  15.11999989  53.50000000
H    23.22999954  13.52000046  54.15000153
