96

S    12.13000107  16.63999939  43.87000275
C     9.48999977  16.95999908  44.72000122
C    10.73999977  16.56999969  45.06999969
C    11.09000015  16.14999962  46.45000076
C    10.08999920  16.14999962  47.41000366
C     8.78000069  16.64999962  47.04000092
C     7.76999998  16.77000046  48.04999924
C     6.51999998  17.21999931  47.80000305
C     6.25999975  17.65999985  46.45000076
C     7.23000002  17.64999962  45.44000244
C     8.47000027  17.07999992  45.72999954
C    12.56000042  16.26000023  46.59999847
C    13.23999977  16.45000076  45.33000183
C    14.60999966  16.54999924  45.31000137
C     4.85000038  17.97000122  46.11000061
H     4.54194832  17.23067665  45.37067413
H     9.23999977  17.38000107  43.74000168
H    10.31999969  16.20000076  48.47000122
H     8.11999989  16.40999985  49.01000214
H     5.73999977  16.86000061  48.47000122
H     7.00999975  18.05999947  44.45999908
H    15.06999969  16.95000076  44.40999985
H     4.26999998  17.94000053  47.04000092
H     4.76000023  19.01000023  45.77000046
S    15.65000057  15.73999977  49.01000214
C    18.30999947  15.29999924  48.15999985
C    17.05000114  15.77000046  47.90999985
C    16.73999977  16.21999931  46.59000015
C    17.79000092  16.34000015  45.66999817
C    19.07999992  15.93000031  45.96000290
C    20.19000053  15.93999958  44.98000336
C    21.38000107  15.32999992  45.25000000
C    21.54999924  14.80999947  46.52999878
C    20.62000084  14.82999992  47.49000168
C    19.32999992  15.29999924  47.22000122
C    15.32999992  16.34000015  46.44000244
C    14.65999985  16.10000038  47.65999603
C    13.32999992  16.14999962  47.81000137
C    22.98999977  14.37000084  46.98999786
H    23.29671860  14.94858265  47.86135864
H    18.53000069  15.15999985  49.22000122
H    17.67000008  16.55999947  44.61000061
H    20.09000015  16.45000076  44.02999878
H    22.17000008  15.50000000  44.52000046
H    20.81000137  14.55999947  48.52000427
H    12.74000072  16.03000069  48.70999908
H    23.68999863  14.44000053  46.13999939
H    22.92000008  13.31999969  47.29999924
S    15.98999977  13.55000019  52.05999756
C    18.51000023  12.64999962  51.33999634
C    17.19000053  12.71999931  51.06999969
C    16.73999977  12.23999977  49.84000397
C    17.54999924  11.80999947  48.87000275
C    18.92000008  11.80999947  49.02999878
C    19.78999901  11.36000061  47.98999786
C    21.15999985  11.26000023  48.27000046
C    21.77000046  11.56999969  49.61000061
C    20.88999939  12.09000015  50.54999924
C    19.44000053  12.20999908  50.33000183
C    15.27999973  12.41000080  49.79999924
C    14.73000050  13.04999924  50.94999695
C    13.40999985  13.48000050  50.96000290
C    23.21000099  11.26000023  49.82999802
H    23.52237511  11.59468842  50.81919098
H    18.89999962  12.90999985  52.32999802
H    17.17000008  11.28000069  48.00000000
H    19.40000153  11.21999931  46.97999954
H    21.77000046  10.77000046  47.51999664
H    21.27000046  12.31999969  51.53999710
H    13.02000046  13.94999981  51.86000061
H    23.32999992  10.18000031  49.75000000
H    23.82999802  11.76000023  49.06999969
S    11.90000057  12.22000027  47.52999878
C     9.31999969  12.81999969  48.22999954
C    10.59999943  12.84000015  48.54999924
C    11.13999939  13.25000000  49.82999802
C    10.24000072  13.82999992  50.72000122
C     8.88000011  13.81999969  50.40999985
C     7.88000011  14.28999996  51.38999939
C     6.57999992  14.42999935  51.00999832
C     6.12999964  14.09000015  49.72000122
C     7.00999975  13.40999985  48.88000107
C     8.42000008  13.34000015  49.16999817
C    12.56000042  13.09000015  49.94999695
C    13.12000084  12.42000008  48.80000305
C    14.42999935  12.06999969  48.73000336
C     4.65999985  14.18000031  49.47999954
H     4.43242884  13.83864307  48.47015381
H     8.90999985  12.43000031  47.29999924
H    10.57999992  14.42999935  51.55000305
H     8.25000000  14.65999985  52.35000229
H     5.86999989  15.00000000  51.60999680
H     6.67000008  12.86000061  48.01000214
H    14.91000080  11.67000008  47.84000015
H     4.33999968  15.21999931  49.43000031
H     4.05999994  13.63999939  50.22999573
