96

S    12.36999989  16.57999992  44.12000275
C     9.77000046  16.79000092  44.72000122
C    11.02000046  16.43000031  45.11000061
C    11.32999992  15.97000027  46.43000031
C    10.27999973  15.81999969  47.35000229
C     8.92000008  16.20000076  47.02000046
C     7.94000053  16.25000000  48.00000000
C     6.72999954  16.72000122  47.61000061
C     6.43000031  17.22999954  46.35000229
C     7.34000015  17.04000092  45.31000137
C     8.67000008  16.63999939  45.65000153
C    12.81000042  15.85000038  46.63999939
C    13.50000000  16.21999931  45.45999908
C    14.85000038  16.15999985  45.31999969
C     5.05000019  17.80999947  45.94999695
H     4.54060221  17.12859726  45.26859665
H     9.61999989  17.15999985  43.70999908
H    10.47000027  15.88000107  48.41999817
H     8.14000034  15.98999977  49.03999710
H     5.98999977  16.73999977  48.40000153
H     7.16000032  17.46000099  44.31999969
H    15.34999943  16.27000046  44.36999893
H     4.32999992  17.88999939  46.77999878
H     5.09000015  18.81999969  45.52999878
S    16.03000069  14.92000008  48.87000275
C    18.63999939  14.70999908  48.04000092
C    17.36999893  15.14000034  47.76000214
C    17.00000000  15.53999996  46.45999908
C    18.04000092  15.52000046  45.47999954
C    19.32999992  15.01999950  45.68000031
C    20.45999908  15.06000042  44.75000000
C    21.70999908  14.75000000  45.12000275
C    22.01999855  14.52999973  46.51000214
C    20.95000076  14.34000015  47.36000061
C    19.61000061  14.60000038  47.02999878
C    15.59999943  15.73999977  46.42000198
C    14.91000080  15.39000034  47.56999969
C    13.55999947  15.44999981  47.69000244
C    23.52999878  14.47000027  47.04999924
H    23.68943405  14.63668251  48.11531448
H    18.89999962  14.35999966  49.03999710
H    17.80999947  15.85000038  44.47000122
H    20.23999977  15.64000034  43.86000061
H    22.53999901  15.08999920  44.51000214
H    21.14000130  14.27999973  48.43000031
H    13.12000084  15.11000061  48.61999893
H    24.21999931  15.11000061  46.47999573
H    23.77000046  13.42000008  46.81000137
S    15.92000008  12.86999893  52.31999969
C    18.50000000  12.13000107  51.70999908
C    17.25000000  12.30000019  51.29000092
C    16.82999992  11.87999916  50.00000000
C    17.67000008  11.31999969  49.09000015
C    19.02000046  11.25000000  49.38999939
C    19.98999977  10.62999916  48.53000259
C    21.30000114  10.54999924  48.90999603
C    21.73000145  10.95000076  50.22999573
C    20.81000137  11.43000031  51.11000061
C    19.43000031  11.61999893  50.76000214
C    15.42000008  12.03999996  49.82999802
C    14.82999992  12.69000053  50.97000122
C    13.45999908  12.94000053  51.00000000
C    23.19999886  10.72999954  50.63000107
H    23.53973198  11.13620090  51.58272552
H    18.78999901  12.41000080  52.71999741
H    17.36999893  11.05000019  48.08000183
H    19.64999962  10.21000004  47.58999634
H    21.97999954  10.06000042  48.20999908
H    21.09000015  11.92999935  52.02999878
H    12.97000027  13.22999954  51.91999817
H    23.38000107   9.64999962  50.50000000
H    23.71999931  11.23999977  49.80999756
S    12.10000038  11.61000061  47.44999695
C     9.35000038  12.22000027  48.23999786
C    10.76000023  12.18999958  48.50000000
C    11.28000069  12.68000031  49.81999969
C    10.47000027  13.21000004  50.73999786
C     9.04999924  13.25000000  50.54000092
C     8.25000000  13.85000038  51.51000214
C     6.90000010  13.93000031  51.29000092
C     6.32999992  13.60999966  49.95999908
C     7.17000008  13.04999924  49.01000214
C     8.50000000  12.81999969  49.22999954
C    12.71999931  12.53000069  49.91000366
C    13.27999973  11.92999935  48.77999878
C    14.65000057  11.75000000  48.64999771
C     4.94000006  14.14999962  49.54000092
H     4.60415792  13.63551903  48.63965607
H     8.97000027  11.97999954  47.23999786
H    10.88999939  13.76000023  51.56999969
H     8.64000034  14.04999924  52.50000000
H     6.30000019  14.37000084  52.08000183
H     6.74000025  12.81000042  48.04000092
H    15.26000023  11.51000023  47.78999710
H     4.92999983  15.22999954  49.36000061
H     4.41000032  14.01999950  50.48999786
