96

S    12.13999939  17.02000046  44.20000076
C     9.65999985  17.79000092  44.98000336
C    10.82999992  17.10000038  45.31000137
C    11.19999981  16.72000122  46.65000153
C    10.17000008  16.77999878  47.56000137
C     8.85999966  17.18000031  47.15999985
C     7.71000004  17.01000023  48.08000183
C     6.44000006  17.46999931  47.84000015
C     6.19000006  18.06999969  46.52999878
C     7.30999994  18.26000023  45.66999817
C     8.60000038  17.81999969  45.93999863
C    12.58999920  16.34000015  46.72000122
C    13.30000019  16.61999893  45.54999924
C    14.65999985  16.39000130  45.43000031
C     4.75000000  18.37000084  46.04999924
H     4.51666927  17.83263397  45.13081741
H     9.59999943  18.31999969  44.03999710
H    10.19000053  16.34000015  48.55999756
H     7.86000013  16.52000046  49.03999710
H     5.65999985  17.21999931  48.55999756
H     7.20000029  18.67000008  44.66999817
H    15.18000031  16.72999954  44.54000092
H     4.00000000  18.27000046  46.84999847
H     4.85000038  19.44000053  45.80999756
S    15.80999947  15.47000027  49.13999939
C    18.47999954  15.32999992  48.36000061
C    17.18000031  15.53999996  47.98999786
C    16.86000061  15.90000057  46.65000153
C    17.90999985  16.06999969  45.77000046
C    19.20999908  15.80000019  46.11999893
C    20.28000069  15.76000023  45.14999771
C    21.60000038  15.46000004  45.61999893
C    21.94999886  15.14999962  46.97000122
C    20.86000061  15.05000019  47.88000107
C    19.55000114  15.52000046  47.48000336
C    15.38000011  16.09000015  46.52999878
C    14.65999985  15.85999966  47.74000168
C    13.26000023  15.85999966  47.85999680
C    23.26999855  14.57999992  47.15999985
H    23.61058044  15.09449482  48.05855179
H    18.59000015  15.01000023  49.38999939
H    17.68000031  16.31000137  44.73999786
H    20.10999870  15.95999908  44.09999847
H    22.43999863  15.36999893  44.93999863
H    20.89999962  14.68000031  48.89999771
H    12.71000004  15.73999977  48.79000092
H    23.82999802  14.91000080  46.27999878
H    23.18000031  13.48999977  47.22999954
S    16.07999992  13.07999992  52.21000290
C    18.64999962  12.50000000  51.39999771
C    17.30999947  12.48000050  51.06999969
C    16.82999992  12.05000019  49.82999802
C    17.71999931  11.64000034  48.83999634
C    19.13999939  11.64000034  49.10999680
C    20.09000015  11.14999962  48.22999954
C    21.42000008  11.05999947  48.52000427
C    21.87999916  11.57999992  49.66999817
C    21.02999878  12.05999947  50.65000153
C    19.62000084  12.13000107  50.38999939
C    15.39999962  12.28000069  49.75000000
C    14.86999989  12.84999943  50.93000031
C    13.59000015  13.35000038  51.03000259
C    23.35000038  11.36000061  50.06000137
H    23.63462067  11.72792625  51.04576111
H    18.94000053  12.75000000  52.42000198
H    17.38999939  11.18999958  47.90999985
H    19.64999962  10.77999973  47.29999924
H    22.10000038  10.50000000  47.88000107
H    21.38000107  12.31999969  51.63999939
H    13.28999996  13.89999962  51.91999817
H    23.52999878  10.29000092  49.95999908
H    23.95999908  11.78999996  49.25000000
S    12.22000027  12.43999958  47.43000031
C     9.50000000  13.15999985  48.13000107
C    10.85999966  13.12000084  48.43999863
C    11.30000019  13.53000069  49.75999832
C    10.34000015  14.01000023  50.68000031
C     9.01000023  14.11000061  50.38000107
C     8.01000023  14.52999973  51.25999832
C     6.67999983  14.51000023  50.94999695
C     6.24000025  14.09999943  49.72000122
C     7.13999987  13.55999947  48.81000137
C     8.55000019  13.63000011  49.09000015
C    12.71999931  13.22000027  49.93000031
C    13.30999947  12.61999989  48.77999878
C    14.60000038  12.15999985  48.69999695
C     4.86999989  14.14999962  49.34000015
H     4.81973934  13.85561657  48.29170990
H     9.09000015  12.57999992  47.30999756
H    10.59000015  14.21000004  51.72000122
H     8.28999996  14.86999989  52.25999832
H     5.96000004  14.84000015  51.69000244
H     6.89000034  13.30000019  47.78999710
H    15.01999950  11.68000031  47.81000137
H     4.32999992  15.11000061  49.40999985
H     4.25000000  13.42000008  49.86999893
