96

S    12.15999985  16.69999886  44.06999969
C     9.48999977  17.17000008  44.93999863
C    10.80000019  16.67000008  45.13999939
C    11.18000031  16.26000023  46.46999741
C    10.21000004  16.17000008  47.43999863
C     8.86999989  16.61999893  47.18999863
C     7.72000027  16.44000053  48.04000092
C     6.44999981  16.94000053  47.70000076
C     6.19999981  17.61000061  46.52999878
C     7.21000004  17.78000069  45.63000107
C     8.48999977  17.23999977  45.94999695
C    12.61999989  16.02000046  46.59999847
C    13.23999977  16.28000069  45.40000153
C    14.59000015  16.25000000  45.31999969
C     4.73000002  17.86000061  46.14999771
H     4.41647959  17.36420059  45.23131180
H     9.26999950  17.60000038  43.95999908
H    10.27999973  15.44000053  48.25000000
H     7.92999983  15.80000019  48.88999939
H     5.61999989  16.79000092  48.37999725
H     7.03999996  18.09000015  44.61000061
H    15.05000019  16.36999893  44.34000015
H     4.11000013  17.40999985  46.93999863
H     4.59000015  18.94000053  46.06999969
S    15.85999966  15.46000004  48.97999573
C    18.59000015  15.31000042  48.36000061
C    17.29999924  15.51000023  47.88999939
C    16.87999916  15.93000031  46.56999969
C    17.90999985  15.90000057  45.65000153
C    19.23999977  15.53999996  45.98999786
C    20.29000092  15.54999924  45.05000305
C    21.53000069  15.19000053  45.50000000
C    21.76000214  14.80999947  46.81000137
C    20.81999969  14.84000015  47.77000046
C    19.60000038  15.31999969  47.41000366
C    15.36999893  16.05999947  46.40999603
C    14.70999908  15.80000019  47.64999771
C    13.32999992  15.80000019  47.74000168
C    23.09999847  14.28999996  47.29000092
H    23.46507263  14.83761024  48.15887451
H    18.78999901  15.01999950  49.38999939
H    17.65999985  16.01000023  44.59999847
H    20.10000038  15.82999992  44.02000046
H    22.26000023  15.06000042  44.71000290
H    21.04000092  14.56999969  48.80000305
H    12.72999954  15.72000027  48.63999939
H    23.85000038  14.44000053  46.50000000
H    22.93999863  13.22999954  47.48000336
S    16.21999931  13.35000038  52.09000015
C    18.86000061  12.57999992  51.39999771
C    17.46000099  12.61000061  51.06999969
C    16.95000076  12.10000038  49.86000061
C    17.85000038  11.61999893  48.92000198
C    19.22000122  11.59999943  49.22999954
C    20.13999939  10.82999992  48.43000031
C    21.47999954  10.77999973  48.69999695
C    21.97000122  11.30000019  49.91000366
C    21.04999924  11.77999973  50.83000183
C    19.71999931  11.97000027  50.50000000
C    15.52000046  12.20999908  49.72000122
C    15.00000000  12.88000011  50.89000320
C    13.59000015  13.03999996  51.00999832
C    23.52999878  11.16000080  50.18000031
H    23.81055832  11.49091530  51.17993927
H    19.29999924  13.12999916  52.22000122
H    17.53000069  11.03000069  48.06000137
H    19.73999977  10.19999981  47.63000107
H    22.11999893  10.22999954  48.02000046
H    21.25000000  12.23000050  51.79999924
H    13.15999985  13.28999996  51.97000122
H    23.81999969  10.11000061  50.08999634
H    24.04999924  11.72000027  49.40000153
S    12.23000050  11.72000027  47.43999863
C     9.61000061  12.48999977  48.20999908
C    10.97000027  12.60000038  48.41999817
C    11.44000053  13.09000015  49.68999863
C    10.51000023  13.48000050  50.63999939
C     9.15999985  13.55000019  50.31999969
C     8.21000004  14.04000092  51.29000092
C     6.85999966  14.04000092  51.00000000
C     6.40999985  13.56999969  49.78000259
C     7.30999994  13.03999996  48.88999939
C     8.71000004  13.04999924  49.12000275
C    12.82999992  12.84999943  49.85000229
C    13.40999985  12.25999928  48.68000031
C    14.70000076  11.85999966  48.60000229
C     4.96000004  13.69999981  49.45999908
H     4.81464434  13.54010868  48.39163208
H     9.11999989  11.87999916  47.44999695
H    10.85000038  13.67000008  51.65999985
H     8.55000019  14.42000008  52.25000000
H     6.17999983  14.27999973  51.81000137
H     7.04999971  12.48999977  47.98999786
H    15.14999962  11.36000061  47.75000000
H     4.67000008  14.73000050  49.69999695
H     4.42999983  12.96000004  50.06999969
