96

S    12.61999989  16.88999939  44.27000046
C     9.90999985  17.25000000  44.92000198
C    11.18999958  16.86000061  45.31000137
C    11.46999931  16.54000092  46.69000244
C    10.39999962  16.46000099  47.62000275
C     9.06000042  16.88999939  47.27000427
C     8.05999947  16.90000153  48.33000183
C     6.83000040  17.39999962  48.02000046
C     6.56000042  17.86000061  46.69000244
C     7.50000000  17.86999893  45.65000153
C     8.89000034  17.35999870  45.90999985
C    12.89000034  16.40999985  46.91999817
C    13.60000038  16.53000069  45.70999908
C    15.00000000  16.42000008  45.65999985
C     5.14999962  18.22000122  46.12999725
H     4.67069197  17.49061966  45.47703171
H     9.78999996  17.68000031  43.93000031
H    10.62000084  16.05999947  48.61000061
H     8.36000061  16.59000015  49.31999969
H     6.12999964  17.26000023  48.83999634
H     7.20000029  18.30999947  44.69999695
H    15.52999973  16.60000038  44.72000122
H     4.53999996  18.32999992  47.04000092
H     5.18000031  19.23999977  45.72999954
S    16.03000069  15.50000000  49.40999985
C    18.70000076  15.27999973  48.60000229
C    17.43999863  15.43000031  48.29000092
C    17.09000015  15.77000046  46.91999817
C    17.97999954  15.78999996  45.90999985
C    19.29999924  15.43000031  46.16000366
C    20.32999992  15.31000042  45.17000198
C    21.63000107  15.03999901  45.54999924
C    21.97999954  14.82999992  46.93999863
C    20.98999977  14.89999962  47.87000275
C    19.69000053  15.29999924  47.57999802
C    15.72000027  16.06999969  46.79999924
C    14.98999977  15.98999977  48.04000092
C    13.63999939  16.36999893  48.15999985
C    23.40999985  14.42999935  47.31999969
H    23.57715416  14.78520203  48.33685303
H    19.00000000  15.11999989  49.64000320
H    17.68000031  16.03000069  44.88999939
H    20.02000046  15.65000057  44.18000031
H    22.39000130  14.98000050  44.78000259
H    21.22999954  14.52000046  48.86000061
H    13.09999943  16.47999954  49.09999847
H    24.04000092  14.92000008  46.56000137
H    23.44000053  13.34000015  47.27000427
S    11.89000034  17.38999939  51.13999939
C     9.17000008  17.77000046  51.59999847
C    10.38000011  17.30999947  52.04000092
C    10.54999924  16.90000153  53.36000061
C     9.55999947  16.82999992  54.23999786
C     8.26000023  17.28999901  53.90999603
C     7.23999977  17.21999931  54.88999939
C     6.00000000  17.64999962  54.52999878
C     5.69999981  18.13999939  53.20999908
C     6.69000053  18.12000084  52.18999863
C     8.01999950  17.71999931  52.50999832
C    11.98999977  16.88999939  53.73000336
C    12.76999950  16.95999908  52.57999802
C    14.11000061  16.79000092  52.45999908
C     4.21000004  18.45000076  52.94000244
H     3.81453252  17.83945465  52.12825394
H     9.06000042  18.36000061  50.68999863
H     9.68000031  16.38000107  55.21999741
H     7.49000025  17.05999947  55.93999863
H     5.21000004  17.73999977  55.27000046
H     6.52999973  18.34000015  51.12999725
H    14.53999996  16.97999954  51.47999573
H     3.55999994  18.30999947  53.81999969
H     3.97000027  19.48999977  52.69000244
S    15.19999981  15.97000027  56.16000366
C    17.89999962  15.64000034  55.47999954
C    16.63999939  16.04999924  55.11000061
C    16.28000069  16.39000130  53.80000305
C    17.20000076  16.32999992  52.81999969
C    18.54999924  15.95000076  53.13999939
C    19.60000038  15.97000027  52.12999725
C    20.92000008  15.52999973  52.44999695
C    21.24000168  15.19000053  53.75999832
C    20.22999954  15.08999920  54.72000122
C    18.90999985  15.47999954  54.47000122
C    14.80000019  16.54000092  53.63999939
C    14.04999924  16.35000038  54.80999756
C    12.65999985  16.54999924  54.92000198
C    22.65999985  14.82999992  54.20999908
H    23.02386093  15.30088043  55.12322235
H    18.13999939  15.40999985  56.52000046
H    16.88999939  16.48999977  51.79000092
H    19.27000046  16.29999924  51.14999771
H    21.61999893  15.46000004  51.62000275
H    20.45000076  14.81999969  55.75000000
H    12.09000015  16.21000099  55.77999878
H    23.29000092  14.96000099  53.31999969
H    22.63000107  13.73999977  54.34999847
