96

S    11.90999985  16.69999886  44.01000214
C     9.21000004  16.81999969  44.80999756
C    10.55999947  16.55999947  45.13999939
C    10.95000076  16.20000076  46.46999741
C     9.96000004  16.13999939  47.47000122
C     8.63000011  16.47999954  47.18999863
C     7.59999990  16.39999962  48.15000153
C     6.28000021  16.68000031  47.88000107
C     5.93999958  17.17000008  46.53999710
C     6.90999985  17.10000038  45.56000137
C     8.31999969  16.79000092  45.83000183
C    12.41000080  16.22999954  46.56999969
C    13.07999992  16.34000015  45.30000305
C    14.47999954  16.28000069  45.17000198
C     4.46999979  17.36999893  46.13999939
H     4.16540098  16.90195656  45.20391464
H     8.80000019  17.14999962  43.85000229
H    10.13000011  15.86999989  48.50999832
H     7.92000008  15.98999977  49.09999847
H     5.58000040  16.48999977  48.68999863
H     6.70000029  17.36999893  44.52999878
H    15.03999901  16.47999954  44.27000046
H     3.86000013  16.88999939  46.90999985
H     4.21999979  18.44000053  46.07999802
S    15.67999935  15.62999916  48.95000076
C    18.25000000  15.22999954  48.13000107
C    17.02000046  15.64000034  47.80000305
C    16.61999893  15.90000057  46.47999573
C    17.63000107  15.93999958  45.50000000
C    19.00000000  15.65999985  45.84999847
C    20.03999901  15.60999966  44.86999893
C    21.27000046  15.06000042  45.24000168
C    21.54000092  14.75999928  46.66999817
C    20.55000114  14.84000015  47.63000107
C    19.29000092  15.21999931  47.19999695
C    15.19000053  16.09000015  46.38999939
C    14.53999996  15.85999966  47.56000137
C    13.15000057  15.86999989  47.64999771
C    23.01000214  14.35999966  47.00000000
H    23.28251266  14.81179523  47.95379257
H    18.45000076  14.88000011  49.13999939
H    17.43999863  16.18000031  44.45999908
H    19.93999863  15.88999939  43.81999969
H    22.07999992  15.00000000  44.52999878
H    20.71000099  14.48999977  48.64999771
H    12.77999973  15.52000046  48.61000061
H    23.62999916  14.63999939  46.13999939
H    23.19999886  13.30000019  47.16999817
S    15.77999973  13.12000084  51.86999893
C    18.37000084  12.46000099  51.11999893
C    17.04000092  12.53000069  50.79999924
C    16.59000015  12.18000031  49.52999878
C    17.53999901  11.84000015  48.56999969
C    18.86000061  11.64999962  48.89999771
C    19.89999962  11.23999977  47.90000153
C    21.14999962  11.11999989  48.26000214
C    21.55999947  11.39999962  49.61999893
C    20.65999985  11.79999924  50.58000183
C    19.29000092  11.90999985  50.21999741
C    15.13000011  12.36999989  49.34000015
C    14.57999992  12.84999943  50.56999969
C    13.19000053  13.17000008  50.73999786
C    23.05000114  11.28000069  49.99000168
H    23.33111763  11.60436535  50.99193192
H    18.71000099  13.00000000  51.98999786
H    17.18000031  11.82000065  47.54000092
H    19.51000023  10.90999985  46.93999863
H    21.94999886  10.78999996  47.60000229
H    20.89999962  12.13000107  51.59000015
H    12.86000061  13.71999931  51.62000275
H    23.29999924  10.21999931  49.84000397
H    23.69999886  11.69999981  49.20999908
S    11.59999943  12.35999966  47.18000031
C     9.06999969  12.77999973  47.97000122
C    10.39000034  12.81000042  48.27999878
C    10.90000057  13.04999924  49.61999893
C    10.03999901  13.47000027  50.63000107
C     8.67999935  13.59000015  50.31999969
C     7.69000006  14.14999962  51.22000122
C     6.37000036  14.23999977  50.91999817
C     5.97000027  13.69999981  49.64000320
C     6.84000015  13.15000057  48.76999664
C     8.23000050  13.21000004  49.01000214
C    12.32999992  12.88000011  49.65999985
C    12.92000008  12.43000031  48.43999863
C    14.32000065  12.27000046  48.22999954
C     4.48000002  13.81999969  49.25000000
H     4.34268379  13.49044132  48.22012711
H     8.64000034  12.56000042  47.00000000
H    10.50000000  13.81000042  51.56000137
H     8.05999947  14.47000027  52.18999863
H     5.66999960  14.70999908  51.60999680
H     6.48000002  12.88000011  47.77999878
H    14.68999958  12.01000023  47.23999786
H     4.11000013  14.82999992  49.43999863
H     3.82999992  13.15000057  49.81999969
