96

S    12.39999962  17.01000023  44.61000061
C     9.84000015  17.64000130  45.18000031
C    11.07999992  17.25000000  45.65000153
C    11.31000042  16.67000008  46.93999863
C    10.24000072  16.55999947  47.80000305
C     8.92000008  16.80999947  47.32999802
C     7.75000000  16.67000008  48.15000153
C     6.46000004  17.09000015  47.72999573
C     6.32000017  17.65999985  46.43000031
C     7.42000008  17.93000031  45.68000031
C     8.71999931  17.46999931  46.00999832
C    12.71999931  16.31999969  47.05999756
C    13.45000076  16.60000038  45.90000153
C    14.82999992  16.60000038  45.86999893
C     5.01999950  18.25000000  45.94999695
H     4.72226906  17.78107262  45.01214600
H     9.59000015  18.11000061  44.23999786
H    10.43000031  15.95000076  48.67000198
H     7.95000029  16.29999924  49.15000153
H     5.53999996  17.18000031  48.29999924
H     7.23000002  18.39999962  44.72000122
H    15.29999924  16.87000084  44.93000031
H     4.23999977  18.12999916  46.70999908
H     5.05999994  19.34999847  45.90999985
S    15.88000107  15.34999943  49.41999817
C    18.63000107  15.11000061  48.63999939
C    17.38999939  15.44999981  48.37999725
C    16.94000053  15.98999977  47.06999969
C    17.94000053  16.09000015  46.12999725
C    19.25000000  15.70000076  46.38999939
C    20.34000015  15.98999977  45.54000092
C    21.63000107  15.65999985  45.79999924
C    21.87999916  14.91000080  47.01000214
C    20.88999939  14.68999958  47.90999985
C    19.60000038  15.14000034  47.63000107
C    15.52000046  16.26000023  46.95999908
C    14.86999989  15.97000027  48.11000061
C    13.48000050  15.93000031  48.15000153
C    23.26999855  14.40999985  47.32999802
H    23.59448433  14.81380272  48.28903580
H    18.96999931  14.73000050  49.59999847
H    17.64999962  16.59000015  45.20999908
H    20.13000107  16.52000046  44.61999893
H    22.47999954  15.95000076  45.18000031
H    21.12999916  14.19999981  48.85000229
H    12.98999977  15.52000046  49.02999878
H    23.95999908  14.72000027  46.53999710
H    23.28000069  13.32999992  47.16999817
S    15.98000050  12.65999985  52.41000366
C    18.56999969  12.07999992  51.63000107
C    17.23999977  12.03999996  51.36000061
C    16.73999977  11.65999985  50.06999969
C    17.65999985  11.31999969  49.08000183
C    18.97999954  11.26999950  49.31000137
C    19.86999893  10.80999947  48.36000061
C    21.21999931  10.77000046  48.61000061
C    21.67000008  11.17000008  49.93000031
C    20.78000069  11.65999985  50.87999725
C    19.43000031  11.59000015  50.65000153
C    15.31999969  11.90999985  50.00000000
C    14.77000046  12.53999901  51.13999939
C    13.45000076  12.93000031  51.17000198
C    23.12999916  11.21000099  50.20999908
H    23.31639671  11.36187935  51.27315140
H    18.96999931  12.48999977  52.55000305
H    17.30999947  11.00000000  48.09999847
H    19.51000023  10.52000046  47.36999893
H    21.90999985  10.32999992  47.90000153
H    21.18999863  11.87000084  51.86999893
H    13.09000015  13.50999928  52.02000046
H    23.61999893  10.27999973  49.91000366
H    23.59000015  11.96000004  49.55999756
S    11.97000027  12.15999985  47.58999634
C     9.43000031  12.89000034  48.31999969
C    10.71000004  12.76999950  48.64999771
C    11.23999977  13.05999947  50.02999878
C    10.39000034  13.57999992  50.97000122
C     9.02999973  13.55000019  50.65000153
C     8.09000015  13.92000008  51.62000275
C     6.80999994  14.14999962  51.35000229
C     6.32000017  13.93000031  50.06000137
C     7.11999989  13.50000000  49.06000137
C     8.51000023  13.27999973  49.34000015
C    12.61999989  12.76999950  50.07999802
C    13.17999935  12.23999977  48.87000275
C    14.47999954  11.78999996  48.88000107
C     4.92000008  14.32999992  49.68999863
H     4.70904970  14.08389091  48.64931107
H     9.15000057  12.48999977  47.35000229
H    10.65000057  13.93000031  51.95999908
H     8.47000027  14.30999947  52.56000137
H     6.24000025  14.57999992  52.15999985
H     6.89000034  13.50999928  47.98999786
H    14.92000008  11.28999901  48.02000046
H     4.73000002  15.39000034  49.87999725
H     4.26999998  13.71000099  50.31999969
