96

S    12.23000050  17.38000107  44.34000015
C     9.53999996  17.64999962  45.08999634
C    10.80999947  17.18000031  45.40999985
C    11.14999962  16.53000069  46.62000275
C    10.19000053  16.38000107  47.60000229
C     8.85000038  16.72999954  47.36999893
C     7.76999998  16.52000046  48.31999969
C     6.51000023  16.88999939  48.00000000
C     6.15999985  17.45000076  46.73999786
C     7.17000008  17.78000069  45.86999893
C     8.50000000  17.36999893  46.10000229
C    12.53000069  16.38000107  46.79999924
C    13.27999973  16.75000000  45.63000107
C    14.68999958  16.59000015  45.61999893
C     4.67999983  17.71999931  46.30000305
H     4.36432409  17.08147430  45.47493744
H     9.40999985  18.20999908  44.16999817
H    10.47000027  16.15999985  48.62999725
H     8.02999973  16.07999992  49.27999878
H     5.75000000  16.53000069  48.68999863
H     6.98000002  18.27000046  44.92000198
H    15.26999950  16.93000031  44.77000427
H     3.96000004  17.80999947  47.12999725
H     4.73000002  18.76000023  45.94999695
S    15.69000053  15.24000072  49.25000000
C    18.44000053  14.92000008  48.50999832
C    17.13999939  15.36999893  48.20999908
C    16.75000000  15.90000057  46.95000076
C    17.75000000  16.10999870  46.09000397
C    19.04999924  15.57000065  46.25000000
C    20.02000046  15.80999947  45.21999741
C    21.30000114  15.46000004  45.37000275
C    21.70000076  14.81999969  46.58000183
C    20.82999992  14.63000107  47.61000061
C    19.42000008  14.96999931  47.47000122
C    15.32999992  16.04999924  46.75000000
C    14.60000038  15.78999996  47.90000153
C    13.26000023  15.95999908  47.95000076
C    23.12000084  14.34000015  46.88999939
H    23.31218529  14.67262840  47.91006088
H    18.73999977  14.67000008  49.52000046
H    17.59000015  16.57999992  45.12000275
H    19.69000053  16.34000015  44.34000015
H    22.10000038  15.70000076  44.68000031
H    21.15999985  14.14000034  48.52000427
H    12.64000034  15.75000000  48.81999969
H    23.88999939  14.70999908  46.18999863
H    23.19999886  13.25000000  46.79000092
S    16.07999992  13.34000015  52.22000122
C    18.72999954  12.56999969  51.45999908
C    17.31999969  12.51999950  51.26999664
C    16.72999954  12.02000046  50.06999969
C    17.64999962  11.64999962  49.15000153
C    19.05999947  11.59000015  49.31000137
C    19.92000008  11.10999966  48.25000000
C    21.25000000  10.82999992  48.63999939
C    21.84000015  11.26000023  49.89999771
C    21.04000092  11.84999943  50.81999969
C    19.63999939  11.96000004  50.56000137
C    15.29999924  12.18000031  49.93999863
C    14.82999992  12.96000004  51.04000092
C    13.42000008  13.30999947  51.11000061
C    23.31999969  10.97000027  49.97000122
H    23.71661949  11.17178917  50.96502686
H    19.14999962  12.98999977  52.37999725
H    17.25000000  11.31999969  48.20000076
H    19.55000114  10.78999996  47.28000259
H    21.80000114  10.17000008  47.97999954
H    21.40000153  12.27000046  51.76000214
H    13.01000023  13.88000011  51.93000031
H    23.38000107   9.90999985  49.68000031
H    23.80000114  11.54000092  49.16999817
S    12.01000023  12.06999969  47.64999771
C     9.39000034  12.82999992  48.18999863
C    10.70000076  12.84000015  48.50999832
C    11.18000031  13.30000019  49.75999832
C    10.25000000  13.73000050  50.75000000
C     8.86999989  13.63000011  50.45999908
C     7.92000008  14.18000031  51.33999634
C     6.57000017  14.14000034  51.00000000
C     6.19000006  13.53000069  49.79000092
C     7.05999947  12.94999981  48.90999603
C     8.40999985  13.14000034  49.22000122
C    12.61000061  13.03999996  50.01999664
C    13.22000027  12.36999989  48.93000031
C    14.52000046  11.95000076  48.81000137
C     4.72000027  13.71000099  49.31000137
H     4.54769325  13.38692570  48.28334045
H     8.98999977  12.36999989  47.29999924
H    10.67999935  14.02999973  51.70000076
H     8.27000046  14.77000046  52.18999863
H     5.86000013  14.60999966  51.66999817
H     6.71000004  12.43000031  48.02000046
H    14.86999989  11.46000004  47.90999985
H     4.53000021  14.78999996  49.29999924
H     4.05000019  13.09999943  49.92000198
