96

S    12.25000000  16.80999947  44.22999954
C     9.56999969  17.25000000  44.86999893
C    10.81999969  16.69999886  45.20000076
C    11.13000011  16.18999863  46.50000000
C    10.19000053  16.28000069  47.50000000
C     8.89000034  16.77999878  47.18000031
C     7.83999968  16.75000000  48.09000015
C     6.54999971  17.14999962  47.76000214
C     6.19999981  17.61000061  46.45999908
C     7.20000029  17.61999893  45.52999878
C     8.56000042  17.19000053  45.84999847
C    12.57999992  16.06999969  46.65999985
C    13.28999996  16.40999985  45.50000000
C    14.68000031  16.64999962  45.47000122
C     4.67999983  17.92000008  46.11000061
H     4.31673193  17.20799446  45.36893082
H     9.44999981  17.87999916  43.99000168
H    10.21999931  15.65999985  48.39000320
H     8.01999950  16.45000076  49.12000275
H     5.78000021  16.86000061  48.47000122
H     6.93000031  17.98999977  44.54000092
H    15.19000053  16.95999908  44.55999756
H     4.00000000  17.89999962  46.97000122
H     4.53999996  18.96000099  45.79000092
S    15.81999969  15.64000034  49.15999985
C    18.43000031  15.38000011  48.40000153
C    17.17000008  15.76000023  48.01000214
C    16.87000084  16.28999901  46.75000000
C    17.84000015  16.44000053  45.79000092
C    19.15999985  16.17000008  46.18999863
C    20.15000153  16.17000008  45.17000198
C    21.47999954  15.85000038  45.51000214
C    21.80000114  15.31000042  46.77000046
C    20.81000137  15.31000042  47.70999908
C    19.50000000  15.73999977  47.47000122
C    15.40999985  16.38000107  46.63999939
C    14.70999908  15.98000050  47.83000183
C    13.35999966  15.81999969  47.77000046
C    23.15999985  14.75999928  47.09999847
H    23.39907074  15.06235600  48.11956787
H    18.60000038  14.67000008  49.20999908
H    17.70000076  16.60000038  44.72999954
H    19.88999939  16.44000053  44.15000153
H    22.27999878  15.93000031  44.78000259
H    20.90999985  14.77000046  48.63999939
H    12.76000023  15.39999962  48.56999969
H    23.90000153  15.21999931  46.43000031
H    23.11000061  13.67000008  46.95000076
S    11.84000015  17.04000092  50.70999908
C     9.19999981  17.35999870  51.52999878
C    10.44999981  16.94000053  51.81999969
C    10.76000023  16.31999969  53.02000046
C     9.80000019  16.23999977  54.01000214
C     8.45000076  16.69999886  53.76999664
C     7.44999981  16.69999886  54.79000092
C     6.19999981  17.10000038  54.41999817
C     5.97000027  17.89999962  53.22999954
C     6.97000027  18.02999878  52.30999756
C     8.18000031  17.35999870  52.52999878
C    12.18999958  16.04999924  53.18000031
C    12.88000011  16.39999962  51.98999786
C    14.27999973  16.47999954  52.01000214
C     4.51999998  18.38000107  52.84999847
H     4.10941935  17.72873497  52.07839203
H     9.06000042  17.92000008  50.61000061
H    10.07999992  15.80000019  54.97000122
H     7.72000027  16.38000107  55.79000092
H     5.42999983  16.77999878  55.11000061
H     6.89000034  18.47999954  51.31999969
H    14.65000057  16.90999985  51.09000397
H     3.91000009  18.42000008  53.75999832
H     4.61999989  19.37000084  52.37999725
S    15.32999992  15.21999931  55.59999847
C    18.06999969  15.13000011  54.98000336
C    16.72999954  15.43000031  54.64000320
C    16.36000061  15.93999958  53.34999847
C    17.43999863  16.25000000  52.47000122
C    18.81000137  15.97000027  52.80000305
C    19.88999939  16.35000038  52.01000214
C    21.11999893  16.07999992  52.28000259
C    21.37000084  15.36999893  53.47000122
C    20.39999962  14.93999958  54.34000015
C    19.05999947  15.31999969  54.05000305
C    14.92000008  16.00000000  53.09999847
C    14.22999954  15.70000076  54.27000046
C    12.88000011  15.70000076  54.33000183
C    22.86000061  14.96999931  53.69999695
H    23.19214058  15.38156509  54.65309525
H    18.22999954  14.81999969  56.00999832
H    17.20000076  16.72000122  51.51000214
H    19.65999985  16.65999985  50.98999786
H    21.86000061  16.31999969  51.52000046
H    20.50000000  14.47000027  55.31999969
H    12.30000019  15.67000008  55.25000000
H    23.48999977  15.36999893  52.88999939
H    22.98999977  13.88000011  53.66000366
