96

S    12.07999992  16.28000069  44.10999680
C     9.57999992  17.13999939  45.00000000
C    10.78999996  16.50000000  45.27999878
C    11.09000015  16.07999992  46.59999847
C    10.14999962  16.09000015  47.56999969
C     8.89999962  16.64999962  47.37999725
C     7.81000042  16.53000069  48.25000000
C     6.57000017  17.00000000  47.97000122
C     6.30999994  17.50000000  46.65000153
C     7.36999989  17.64000130  45.79000092
C     8.60999966  17.23999977  46.07999802
C    12.48999977  15.59999943  46.73999786
C    13.15999985  15.73999977  45.48999786
C    14.55000019  15.67999935  45.33000183
C     4.90999985  17.92000008  46.18999863
H     4.47241259  17.27091026  45.43151474
H     9.31999969  17.45000076  43.99000168
H    10.43000031  15.54999924  48.47000122
H     7.90999985  16.06999969  49.23999786
H     5.73999977  17.05000114  48.67000198
H     7.13999987  18.01000023  44.79000092
H    15.07999992  15.81999969  44.38999939
H     4.13999987  17.87999916  46.97000122
H     4.96000004  18.90999985  45.72000122
S    15.72000027  14.93999958  49.02000046
C    18.46999931  14.85000038  48.29999924
C    17.15999985  15.05000019  47.94000244
C    16.77000046  15.29000092  46.63000107
C    17.79000092  15.39999962  45.68999863
C    19.17000008  15.29999924  45.97999954
C    20.10999870  15.29999924  44.97000122
C    21.40000153  14.89999962  45.28999710
C    21.77000046  14.59000015  46.63000107
C    20.86000061  14.67000008  47.62000275
C    19.52000046  15.03000069  47.32999802
C    15.34999943  15.36999893  46.50000000
C    14.63999939  15.24000072  47.67000198
C    13.25000000  15.32999992  47.88000107
C    23.23999786  14.14999962  47.08000183
H    23.58929443  14.77174282  47.90433502
H    18.63000107  14.50000000  49.31000137
H    17.71999931  15.67999935  44.64000320
H    19.78000069  15.47999954  43.95000076
H    22.20000076  14.93000031  44.54999924
H    20.98999977  14.37000084  48.66000366
H    12.86999893  15.42000008  48.88999939
H    24.02000046  14.17000008  46.31000137
H    23.22000122  13.09999943  47.39999771
S    11.84000015  16.80999947  50.94999695
C     9.15999985  17.09000015  51.70999908
C    10.40999985  16.76000023  52.04000092
C    10.78999996  16.36000061  53.37999725
C     9.72999954  16.13999939  54.27000046
C     8.38999939  16.51000023  53.88999939
C     7.36999989  16.54999924  54.87999725
C     6.09000015  17.02999878  54.56999969
C     5.84999990  17.64999962  53.29000092
C     6.76000023  17.67000008  52.34000397
C     8.14999962  17.13999939  52.63999939
C    12.25999928  16.18999863  53.52000427
C    12.94000053  16.36999893  52.29999924
C    14.34000015  16.39000130  52.18000031
C     4.40000010  18.00000000  52.91999817
H     4.10435677  17.57870865  51.95915985
H     9.06999969  17.53999901  50.72999954
H     9.89999962  15.95000076  55.33000183
H     7.57000017  16.03999901  55.81999969
H     5.32000017  16.88999939  55.33000183
H     6.56000042  17.92000008  51.30000305
H    14.85000038  16.55999947  51.23000336
H     3.67000008  17.77000046  53.70999908
H     4.28999996  19.07999992  52.77999878
S    15.47999954  15.36999893  55.77000046
C    18.13999939  14.91000080  55.12000275
C    16.90000153  15.32999992  54.69999695
C    16.57999992  15.80999947  53.36999893
C    17.61000061  15.82999992  52.47000122
C    18.92000008  15.47000027  52.90999985
C    19.95000076  15.43000031  51.93000031
C    21.22999954  15.06999969  52.32999802
C    21.48999977  14.52000046  53.61000061
C    20.45999908  14.42999935  54.51000214
C    19.14999962  14.96999931  54.16999817
C    15.14999962  16.05999947  53.25000000
C    14.44000053  15.88000107  54.47999954
C    13.00000000  15.93999958  54.62999725
C    22.82999992  13.99000072  54.06999969
H    23.28685951  14.75392914  54.69911957
H    18.31999969  14.42999935  56.07999802
H    17.38999939  16.10000038  51.44000244
H    19.77000046  15.52000046  50.86000061
H    21.96000099  14.98999977  51.52000046
H    20.71000099  13.96000004  55.45000076
H    12.46000099  15.90999985  55.56999969
H    23.44000053  13.63999939  53.22999954
H    22.50999832  13.09000015  54.61000061
