96

S    11.84000015  16.61999893  44.02999878
C     9.09000015  17.05000114  44.84000397
C    10.38000011  16.62999916  45.04000092
C    10.72000027  16.22999954  46.38999939
C     9.73999977  16.26000023  47.36000061
C     8.43000031  16.69000053  47.09000015
C     7.37999964  16.69999886  48.09999847
C     6.11000013  17.20999908  47.81999969
C     5.89999962  17.61999893  46.43000031
C     6.91999960  17.71000099  45.54000092
C     8.10000038  17.06999969  45.80999756
C    12.17000008  16.03000069  46.53999710
C    12.93000031  16.23999977  45.31999969
C    14.30999947  16.10000038  45.19000244
C     4.55999994  18.23999977  46.17000198
H     4.29159164  17.83738708  45.19329453
H     8.93000031  17.46999931  43.85000229
H    10.00000000  16.00000000  48.37999725
H     7.63999987  16.36999893  49.09999847
H     5.32999992  17.38999939  48.54999924
H     6.84000015  18.00000000  44.48999786
H    14.80000019  16.20000076  44.22999954
H     3.88999987  17.90999985  46.95999908
H     4.55000019  19.34000015  46.22000122
S    15.46000004  15.19000053  48.79000092
C    18.17000008  15.01000023  48.22000122
C    16.86000061  15.26000023  47.83000183
C    16.51000023  15.53999996  46.49000168
C    17.50000000  15.69000053  45.59999847
C    18.79999924  15.31999969  45.90000153
C    19.92000008  15.48999977  45.01999664
C    21.21000099  15.14000034  45.34999847
C    21.51000023  14.68999958  46.63999939
C    20.50000000  14.63000107  47.54000092
C    19.13999939  14.88000011  47.21000290
C    15.01999950  15.77000046  46.30000305
C    14.32999992  15.62000084  47.56000137
C    12.89999962  15.70000076  47.70000076
C    23.05999947  14.44000053  47.02999878
H    23.23970032  14.34655571  48.10101318
H    18.43000031  14.63999939  49.20999908
H    17.28999901  16.03999901  44.59000015
H    19.64999962  15.82999992  44.02999878
H    21.98999786  15.21999931  44.59999847
H    20.76000023  14.56999969  48.59000397
H    12.39999962  15.32999992  48.59000397
H    23.69999886  15.26000023  46.65999985
H    23.47999954  13.52000046  46.63000107
S    11.51999950  16.77999878  50.80999756
C     8.98999977  17.40999985  51.56999969
C    10.18000031  16.82999992  51.90000153
C    10.52000046  16.29999924  53.20000076
C     9.44999981  16.28000069  54.06999969
C     8.21000004  16.90999985  53.80000305
C     7.16000032  16.84000015  54.79999924
C     5.86000013  17.21999931  54.38999939
C     5.55999994  17.79999924  53.09999847
C     6.65999985  17.94000053  52.22000122
C     7.96000004  17.45000076  52.50999832
C    11.95000076  16.10000038  53.29999924
C    12.61999989  16.28000069  52.09000015
C    13.99000072  16.17000008  51.93999863
C     4.15999985  18.30000114  52.60000229
H     3.87275743  17.69749069  51.73827362
H     8.88000011  17.72999954  50.52999878
H     9.39999962  15.57000065  54.89999771
H     7.23000002  16.28000069  55.72000122
H     5.13000011  16.92000008  55.13000107
H     6.48000002  18.06999969  51.16000366
H    14.30999947  16.36999893  50.91999817
H     3.40000010  18.25000000  53.39000320
H     4.26999998  19.29999924  52.16999817
S    15.17000008  15.59000015  55.68000031
C    17.88999939  15.24000072  54.92000198
C    16.57999992  15.54999924  54.58000183
C    16.20000076  15.67999935  53.18999863
C    17.26000023  15.71000004  52.23999786
C    18.61999893  15.47999954  52.56999969
C    19.67000008  15.51000023  51.62000275
C    20.90999985  15.17000008  51.97000122
C    21.31000137  15.01999950  53.29999924
C    20.30999947  14.93999958  54.26000214
C    18.93000031  15.21999931  53.92000198
C    14.77000046  15.90999985  53.09000015
C    14.06999969  15.95999908  54.34000015
C    12.71999931  15.88999939  54.47000122
C    22.72999954  14.81999969  53.70999908
H    22.92871666  14.80580616  54.78163910
H    18.15999985  15.06999969  55.96000290
H    16.97999954  15.81999969  51.19999695
H    19.40000153  15.77000046  50.59999847
H    21.64999962  15.07999992  51.18000031
H    20.48000145  14.60000038  55.27999878
H    12.28999996  15.67999935  55.45000076
H    23.25000000  15.67999935  53.27999878
H    23.16999817  13.96999931  53.16999817
