96

S    12.18999958  16.79999924  44.20999908
C     9.52999973  17.14999962  44.98000336
C    10.80999947  16.77000046  45.30000305
C    11.10999966  16.35000038  46.63999939
C    10.08999920  16.35000038  47.60000229
C     8.82000065  16.64999962  47.27000427
C     7.79999971  16.77000046  48.27999878
C     6.48999977  17.05999947  47.88999939
C     6.21000004  17.43000031  46.56999969
C     7.20000029  17.35000038  45.59000015
C     8.53999996  17.05000114  45.93000031
C    12.56000042  16.18000031  46.77999878
C    13.27999973  16.26000023  45.59000015
C    14.68999958  16.18000031  45.47999954
C     4.72000027  17.71000099  46.18000031
H     4.39023066  17.26796913  45.23980713
H     9.27999973  17.64999962  44.03999710
H    10.26999950  16.06999969  48.63999939
H     8.03999996  16.56999969  49.31999969
H     5.65000010  16.82999992  48.53000259
H     7.11999989  17.67000008  44.54999924
H    15.31000042  16.34000015  44.59999847
H     4.18000031  17.32999992  47.04999924
H     4.48000002  18.78000069  46.17000198
S    15.77000046  15.62999916  49.23999786
C    18.34000015  15.18000031  48.68000031
C    17.12000084  15.51000023  48.25000000
C    16.84000015  15.77000046  46.88999939
C    17.92000008  15.80999947  45.97999954
C    19.15999985  15.39999962  46.37000275
C    20.15999985  15.19999981  45.40999985
C    21.48999977  14.91000080  45.73999786
C    21.84000015  14.75000000  47.08000183
C    20.79000092  14.73999977  48.08000183
C    19.43000031  15.14000034  47.77000046
C    15.46000004  16.03000069  46.66999817
C    14.75000000  16.14999962  47.88000107
C    13.30999947  16.13999939  47.93000031
C    23.19000053  14.35999966  47.49000168
H    23.50937843  14.65098763  48.49071503
H    18.37000084  14.81999969  49.69999695
H    17.84000015  16.18999863  44.95999908
H    19.75000000  15.22999954  44.40999985
H    22.23999977  15.03000069  44.95999908
H    21.02999878  14.63000107  49.13999939
H    12.75000000  16.28000069  48.85000229
H    23.82999802  14.80000019  46.72000122
H    23.29999924  13.27000046  47.39999771
S    11.94000053  17.30999947  50.93000031
C     9.26000023  17.75000000  51.70000076
C    10.51000023  17.15999985  51.93000031
C    10.78999996  16.55999947  53.20000076
C     9.77999973  16.50000000  54.15999985
C     8.45000076  16.88999939  53.81999969
C     7.44000006  16.79000092  54.85000229
C     6.15999985  17.30999947  54.66999817
C     5.84000015  17.86000061  53.37999725
C     6.84999990  18.09999847  52.42000198
C     8.14999962  17.53000069  52.56999969
C    12.25999928  16.52000046  53.36999893
C    13.00000000  16.87000084  52.19999695
C    14.34000015  17.00000000  52.19999695
C     4.48999977  18.27000046  53.06000137
H     4.09062576  17.62656403  52.27604294
H     9.09000015  18.34000015  50.79999924
H     9.85000038  16.05999947  55.14999771
H     7.75000000  16.39000130  55.80999756
H     5.40999985  17.32999992  55.45999908
H     6.67999983  18.70000076  51.53999710
H    14.94999981  17.18000031  51.31999969
H     3.82999992  18.20000076  53.94000244
H     4.48999977  19.27000046  52.61000061
S    15.40999985  15.57999992  55.75000000
C    18.02000046  15.22999954  55.02999878
C    16.76000023  15.65000057  54.69999695
C    16.45000076  16.29999924  53.50999832
C    17.46000099  16.35000038  52.57999802
C    18.76000023  15.82999992  52.77999878
C    19.88999939  15.86999989  51.86999893
C    21.07999992  15.32999992  52.19999695
C    21.35999870  14.93000031  53.47000122
C    20.38999939  14.96000099  54.38999939
C    19.05999947  15.34999943  54.06999969
C    15.01999950  16.54999924  53.36000061
C    14.40999985  16.25000000  54.54999924
C    12.98999977  16.26000023  54.58000183
C    22.82999992  14.57999992  53.76999664
H    23.17850304  15.12870693  54.64496231
H    18.15999985  14.84000015  56.03000259
H    17.20999908  16.79999924  51.63000107
H    19.82999992  16.39000130  50.91999817
H    21.97000122  15.36000061  51.58000183
H    20.53999901  14.48999977  55.35999680
H    12.50000000  16.03000069  55.52000046
H    23.38999939  14.73000050  52.84000015
H    22.89999962  13.52000046  54.03999710
