96

S    11.92000008  17.04000092  44.15000153
C     9.26999950  17.29999924  44.88999939
C    10.51000023  16.87999916  45.15999603
C    10.80000019  16.45000076  46.40999603
C     9.82999992  16.34000015  47.36999893
C     8.50000000  16.79000092  47.18999863
C     7.44999981  16.73999977  48.13999939
C     6.21999979  17.30999947  47.85999680
C     6.01000023  17.92000008  46.59000015
C     6.98000002  17.94000053  45.63000107
C     8.25000000  17.34000015  45.87999725
C    12.27000046  16.38000107  46.62000275
C    13.01000023  16.67000008  45.45000076
C    14.37999916  16.61000061  45.31999969
C     4.61999989  18.07999992  46.19999695
H     4.41232252  17.50888634  45.29512024
H     9.09000015  17.64999962  43.88000107
H    10.08999920  15.85000038  48.29999924
H     7.63999987  16.20000076  49.06999969
H     5.45000029  17.26000023  48.61999893
H     6.83000040  18.22000122  44.59000015
H    14.88999939  16.79000092  44.36999893
H     3.89999986  17.86000061  46.98999786
H     4.42999983  19.13999939  46.03000259
S    15.43000031  15.59000015  49.03999710
C    18.11000061  15.36000061  48.31999969
C    16.84999847  15.76000023  48.00000000
C    16.52000046  16.13000107  46.65999985
C    17.53999901  16.31999969  45.72999954
C    18.89000130  16.13000107  46.05999756
C    19.95000076  16.29999924  45.18000031
C    21.18000031  15.86999989  45.40999985
C    21.52000046  15.26000023  46.70000076
C    20.55000114  15.25000000  47.70000076
C    19.19000053  15.60999966  47.39999771
C    15.08999920  16.25000000  46.46999741
C    14.34999943  15.90999985  47.67000198
C    12.98999977  15.93999958  47.75000000
C    22.92000008  14.85000038  47.11000061
H    23.29422760  15.40767193  47.96852112
H    18.29000092  14.85000038  49.26000214
H    17.38000107  16.48999977  44.66999817
H    19.69000053  16.36000061  44.13000107
H    21.98999786  15.85000038  44.68000031
H    20.69000053  14.84000015  48.69999695
H    12.48999977  15.53999996  48.61999893
H    23.51000023  14.96000099  46.18999863
H    22.98000145  13.80000019  47.41000366
S    16.26000023  13.15999985  52.34000397
C    18.86999893  12.60000038  51.53999710
C    17.53000069  12.48999977  51.27999878
C    17.02999878  12.15999985  50.00000000
C    17.79999924  11.73999977  48.95999908
C    19.22999954  11.77999973  49.18000031
C    20.15999985  11.31000042  48.15999985
C    21.47999954  11.23000050  48.46000290
C    21.88999939  11.59999943  49.73999786
C    21.11999893  12.20999908  50.65000153
C    19.70999908  12.20999908  50.43000031
C    15.60999966  12.46999931  49.91000366
C    15.06000042  12.97000027  51.09000397
C    13.68000031  13.23999977  51.36000061
C    23.36999893  11.46000004  50.06000137
H    23.74762344  11.81583786  51.01858521
H    19.36000061  13.10999966  52.36000061
H    17.39999962  11.31999969  48.04000092
H    19.76000023  10.95999908  47.19999695
H    22.15999985  10.70000076  47.80000305
H    21.54000092  12.51999950  51.59999847
H    13.35999966  13.47000027  52.36999893
H    23.65999985  10.39999962  49.98000336
H    23.92000008  12.01000023  49.29000092
S    12.10999966  12.32999992  47.83000183
C     9.53999996  12.81999969  48.61000061
C    10.86999989  12.81999969  48.92000198
C    11.35000038  13.26000023  50.22999573
C    10.47999954  13.59000015  51.25999832
C     9.09000015  13.55000019  50.97999954
C     8.18000031  13.96999931  51.90999985
C     6.84000015  14.04000092  51.65999985
C     6.38999987  13.78000069  50.30000305
C     7.28999996  13.48000050  49.36000061
C     8.67000008  13.26000023  49.65999985
C    12.79000092  13.15000057  50.27000046
C    13.31999969  12.60000038  49.06000137
C    14.70000076  12.35000038  48.83999634
C     4.97000027  14.01999950  49.91000366
H     4.69875717  13.46360493  49.01281357
H     9.11999989  12.56999969  47.63000107
H    10.82999992  14.01999950  52.19999695
H     8.69999981  14.40000057  52.77000046
H     6.10000038  14.47000027  52.34000397
H     7.05999947  13.61999989  48.29999924
H    14.92000008  11.94000053  47.85999680
H     4.81999969  15.11000061  49.87999725
H     4.46999979  13.64999962  50.80999756
