96

S    12.31999969  16.42000008  44.19000244
C     9.81000042  17.28000069  44.95999908
C    10.90999985  16.59000015  45.21999741
C    11.26000023  16.13000107  46.56999969
C    10.22999954  16.27000046  47.50999832
C     8.97999954  16.79999924  47.19999695
C     7.88000011  16.77999878  48.16999817
C     6.63000011  17.12000084  47.72999573
C     6.42000008  17.76000023  46.45999908
C     7.46999979  17.92000008  45.56999969
C     8.73000050  17.31999969  45.86999893
C    12.69000053  15.88999939  46.75000000
C    13.40000057  15.98999977  45.52999878
C    14.75999928  15.90999985  45.47000122
C     5.05000019  18.26000023  46.06999969
H     4.70818472  17.69742966  45.20122147
H     9.81000042  17.80999947  44.01000214
H    10.46000004  15.88000107  48.50000000
H     8.07999992  16.46000099  49.19000244
H     5.78000021  16.90000153  48.36999893
H     7.28999996  18.52000046  44.68000031
H    15.34999943  16.22999954  44.61999893
H     4.30000019  18.09999847  46.84999847
H     5.00999975  19.34999847  45.90999985
S    16.01000023  15.48999977  49.20999908
C    18.64999962  15.13000011  48.33000183
C    17.34000015  15.44999981  48.06999969
C    16.95999908  15.73999977  46.72000122
C    17.88999939  15.77999973  45.68999863
C    19.26000023  15.40999985  45.94999695
C    20.22000122  15.38000011  44.89999771
C    21.45999908  14.96000099  45.21999741
C    21.90000153  14.60000038  46.52999878
C    20.86999893  14.52999973  47.56999969
C    19.54000092  15.03999901  47.25999832
C    15.52000046  15.84000015  46.63000107
C    14.84000015  15.71000004  47.84999847
C    13.40999985  15.77999973  47.90000153
C    23.35000038  14.26000023  46.86000061
H    23.58308983  14.81093979  47.77117157
H    19.04000092  14.82999992  49.31000137
H    17.63000107  16.03000069  44.65999985
H    20.03999901  15.81999969  43.92000198
H    22.22999954  15.03000069  44.45999908
H    21.01000023  14.34999943  48.62999725
H    12.94000053  15.75000000  48.88000107
H    24.13000107  14.52000046  46.13999939
H    23.50000000  13.19000053  47.02999878
S    11.67000008  17.07999992  50.93000031
C     8.98999977  17.61000061  51.70000076
C    10.26999950  17.09000015  52.04999924
C    10.62000084  16.76000023  53.40000153
C     9.61000061  16.60000038  54.31000137
C     8.28999996  16.94000053  54.00000000
C     7.18999958  16.52000046  54.77000427
C     5.88000011  16.72000122  54.29999924
C     5.63000011  17.51000023  53.15000153
C     6.70000029  17.86999893  52.36000061
C     8.00000000  17.52000046  52.71999741
C    12.02999973  16.52000046  53.54000092
C    12.76000023  16.77999878  52.31999969
C    14.09999943  16.54999924  52.14000320
C     4.21000004  18.02999878  52.75000000
H     3.82949758  17.39104271  51.95309830
H     8.86999989  18.17000008  50.77999878
H     9.72999954  15.95000076  55.18000031
H     7.36999989  16.03000069  55.72999954
H     5.09000015  16.76000023  55.04000092
H     6.60000038  18.45999908  51.45999908
H    14.55999947  16.53000069  51.14999771
H     3.48000002  18.04999924  53.56999969
H     4.21000004  19.06999969  52.38999939
S    15.26999950  15.55999947  55.68999863
C    17.92000008  15.31999969  55.11000061
C    16.67000008  15.71000004  54.65999985
C    16.29999924  16.09000015  53.33000183
C    17.35000038  16.38000107  52.48000336
C    18.70000076  15.93000031  52.88000107
C    19.71999931  15.97000027  51.86999893
C    21.02000046  15.55999947  52.15999985
C    21.34000015  15.05000019  53.43000031
C    20.36000061  15.06999969  54.43999863
C    19.00000000  15.38000011  54.20999908
C    14.89999962  16.18999863  53.20999908
C    14.17000008  16.03000069  54.41999817
C    12.82999992  16.10999870  54.61999893
C    22.67000008  14.68000031  53.72000122
H    23.04091072  15.26489639  54.56167984
H    17.97999954  14.80999947  56.06999969
H    17.19000053  16.70999908  51.45000076
H    19.45999908  16.22999954  50.84999847
H    21.77999878  15.55999947  51.38000107
H    20.65000153  14.98000050  55.47999954
H    12.35000038  15.90000057  55.56999969
H    23.23999786  14.88999939  52.80000305
H    22.67000008  13.60000038  53.90999603
