96

S    12.48000050  17.19000053  43.99000168
C     9.88000011  17.51000023  44.55999756
C    11.09000015  17.05000114  44.94999695
C    11.39999962  16.69000053  46.32999802
C    10.32999992  16.60000038  47.22999954
C     9.02999973  16.93000031  46.84000015
C     7.90000010  16.70999908  47.64999771
C     6.63000011  17.07999992  47.27000427
C     6.38000011  17.64000130  46.00999832
C     7.46999979  17.77000046  45.12000275
C     8.76999950  17.38000107  45.48999786
C    12.79999924  16.52000046  46.52999878
C    13.55999947  16.65999985  45.27999878
C    14.92000008  16.68000031  45.21999741
C     4.94000006  18.00000000  45.70000076
H     4.47277832  17.40339279  44.91650391
H     9.89000034  18.15999985  43.68000031
H    10.50000000  16.18000031  48.22000122
H     8.00000000  16.20000076  48.60000229
H     5.84999990  16.84000015  47.97999954
H     7.37999964  18.15000153  44.09999847
H    15.38000011  16.84000015  44.25000000
H     4.30999994  17.79999924  46.56999969
H     4.90000010  19.04999924  45.40999985
S    15.97000027  15.81999969  48.88999939
C    18.71000099  15.52000046  48.11999893
C    17.43000031  15.90999985  47.78999710
C    17.13000107  16.36000061  46.51000214
C    18.02999878  16.27000046  45.44000244
C    19.34999847  15.98999977  45.75000000
C    20.36000061  15.80999947  44.75000000
C    21.68999863  15.48999977  45.06000137
C    21.94000053  15.06999969  46.43000031
C    20.98999977  15.07999992  47.45999908
C    19.69000053  15.57000065  47.09999847
C    15.65000057  16.48999977  46.40999603
C    14.88999939  16.20000076  47.60000229
C    13.53000069  16.09000015  47.64999771
C    23.31999969  14.61999989  46.77999878
H    23.62323380  15.12538624  47.69691467
H    18.89000130  14.93999958  49.02999878
H    17.86999893  16.38000107  44.36999893
H    20.03999901  15.88000107  43.70999908
H    22.50000000  15.40999985  44.33000183
H    21.25000000  14.80000019  48.47999954
H    12.97999954  15.75000000  48.52000427
H    24.10000038  14.80999947  46.03000259
H    23.36999893  13.55000019  47.00000000
S    16.23999977  13.22999954  52.09000015
C    18.89000130  12.86000061  51.39999771
C    17.53999901  12.75000000  51.04000092
C    17.13000107  12.35000038  49.71000290
C    18.17000008  11.87000084  48.83999634
C    19.48999977  11.84000015  49.22999954
C    20.56999969  11.42000008  48.36999893
C    21.94999886  11.39999962  48.76999664
C    22.18000031  11.92999935  50.08999634
C    21.22999954  12.32999992  50.96000290
C    19.85999870  12.41000080  50.51000214
C    15.69000053  12.51999950  49.61999893
C    15.08999920  13.00000000  50.81999969
C    13.82999992  13.45999908  50.80999756
C    23.62999916  11.92000008  50.61999893
H    23.80470657  11.06102562  51.26787186
H    19.12999916  13.27999973  52.36999893
H    17.79000092  11.82999992  47.81999969
H    20.29999924  11.14999962  47.35000229
H    22.78000069  11.23000050  48.09999847
H    21.47999954  12.51999950  52.00000000
H    13.34000015  13.97999954  51.63000107
H    24.26000214  11.92000008  49.72000122
H    23.78000069  12.84999943  51.18000031
S    12.35999966  12.15999985  47.37999725
C     9.81000042  12.67000008  48.18000031
C    11.14999962  12.77999973  48.40000153
C    11.64000034  13.35999966  49.56999969
C    10.70000076  13.94000053  50.47999954
C     9.35000038  13.86999989  50.27999878
C     8.47000027  14.44000053  51.24000168
C     7.17999983  14.55999947  51.00999832
C     6.65000010  13.96999931  49.81999969
C     7.42999983  13.22000027  48.95999908
C     8.82999992  13.22999954  49.09999847
C    13.07000065  13.25000000  49.65000153
C    13.55999947  12.61000061  48.53000259
C    14.88000011  12.28000069  48.47999954
C     5.15999985  14.09000015  49.58000183
H     4.76878071  13.64082241  48.66715622
H     9.51000023  12.06999969  47.32999802
H    11.05000019  14.32999992  51.43000031
H     9.00000000  14.88999939  52.06999969
H     6.56000042  15.08999920  51.72999954
H     7.00000000  12.53999901  48.22999954
H    15.34999943  11.77000046  47.64999771
H     5.01999950  15.17000008  49.45000076
H     4.71000004  13.60999966  50.45999908
