96

S    11.85999966  16.65999985  44.05000305
C     9.19999981  17.20999908  44.82999802
C    10.51000023  16.77000046  45.10000229
C    10.80000019  16.42000008  46.49000168
C     9.81000042  16.44000053  47.50000000
C     8.56999969  16.92000008  47.22000122
C     7.46000004  16.79000092  48.08000183
C     6.19000006  17.07999992  47.64999771
C     5.88999987  17.48999977  46.36000061
C     6.90000010  17.63000107  45.44000244
C     8.22000027  17.32999992  45.86999893
C    12.23999977  16.28000069  46.59999847
C    12.94000053  16.39999962  45.38000107
C    14.32000065  16.42000008  45.20999908
C     4.42999983  17.80999947  45.91999817
H     4.03588915  17.21525002  45.09595108
H     8.75000000  17.42000008  43.86000061
H     9.89999962  15.97000027  48.47000122
H     7.72000027  16.45000076  49.06999969
H     5.42999983  17.07999992  48.41999817
H     6.65999985  17.93000031  44.43000031
H    14.65000057  16.59000015  44.19000244
H     3.81000018  17.64000130  46.81000137
H     4.34999990  18.86999893  45.63999939
S    15.52000046  15.51000023  48.99000168
C    18.15999985  15.26999950  48.27000046
C    16.88999939  15.72000027  47.94000244
C    16.55999947  16.11999893  46.63000107
C    17.53999901  16.25000000  45.63999939
C    18.90999985  15.81999969  45.93000031
C    19.96999931  15.75000000  44.98000336
C    21.15999985  15.18000031  45.30000305
C    21.44000053  14.61999989  46.55000305
C    20.48000145  14.73000050  47.54000092
C    19.18000031  15.29000092  47.28000259
C    15.07999992  16.17000008  46.39999771
C    14.37999916  15.95999908  47.63000107
C    12.97999954  16.03999901  47.75000000
C    22.81999969  14.14999962  46.90999985
H    23.15357780  14.78166771  47.73329926
H    18.35000038  14.73000050  49.19000244
H    17.20999908  16.59000015  44.65999985
H    19.76000023  16.18999863  44.01000214
H    21.93000031  15.11000061  44.52999878
H    20.56999969  14.40999985  48.57999802
H    12.48000050  15.65999985  48.63999939
H    23.36999893  14.09000015  45.97000122
H    22.62000084  13.12999916  47.27000427
S    15.76000023  12.84999943  51.91999817
C    18.44000053  12.09000015  51.30000305
C    17.09000015  12.18000031  50.94999695
C    16.63999939  11.97000027  49.61000061
C    17.57999992  11.65999985  48.61999893
C    18.92000008  11.54000092  48.95000076
C    19.96000099  11.26999950  47.95999908
C    21.30000114  11.07999992  48.27999878
C    21.68000031  11.31999969  49.65000153
C    20.76000023  11.59999943  50.65000153
C    19.37999916  11.75000000  50.30000305
C    15.24000072  12.25999928  49.36999893
C    14.65999985  12.79999924  50.54999924
C    13.28999996  13.10999966  50.61000061
C    23.12999916  11.13999939  49.94999695
H    23.34772301  11.31558323  51.00349808
H    18.82999992  12.18000031  52.30999756
H    17.35000038  11.46999931  47.57999802
H    19.56999969  11.13999939  46.95000076
H    22.06000137  10.67999935  47.62000275
H    21.02000046  11.87000084  51.66999817
H    12.71000004  13.52000046  51.43000031
H    23.29000092  10.07999992  49.73999786
H    23.80000114  11.73999977  49.31000137
S    11.80999947  12.02000046  47.04000092
C     9.07999992  12.74000072  47.83000183
C    10.46000004  12.61000061  48.15999985
C    10.98000050  12.89999962  49.47999954
C    10.11000061  13.45999908  50.40000153
C     8.67000008  13.50999928  50.25000000
C     7.75000000  13.96000004  51.29000092
C     6.43000031  13.94999981  50.96000290
C     5.98000002  13.73000050  49.66999817
C     6.81999969  13.22000027  48.68000031
C     8.19999981  13.12999916  48.93000031
C    12.46000099  12.76000023  49.55999756
C    13.02000046  12.18999958  48.34999847
C    14.39000034  11.94000053  48.30999756
C     4.46999979  13.86999989  49.27000046
H     4.32266569  13.42098045  48.28777313
H     8.53999996  12.44999981  46.91999817
H    10.40999985  13.71000099  51.40999603
H     8.19000053  14.37000084  52.19999695
H     5.65000010  14.34999943  51.60999680
H     6.34999990  12.81999969  47.77999878
H    14.78000069  11.30000019  47.51999664
H     4.28000021  14.94999981  49.34000015
H     3.84000015  13.27999973  49.94999695
