96

S    12.06999969  16.90000153  44.25000000
C     9.35999966  17.05999947  44.92000198
C    10.62999916  16.76000023  45.31999969
C    10.88999939  16.23999977  46.55000305
C     9.82999992  15.95000076  47.34000397
C     8.47999954  16.26000023  47.04000092
C     7.46000004  16.29999924  48.04000092
C     6.14000034  16.61999893  47.70000076
C     5.93999958  17.21999931  46.42000198
C     6.98000002  17.28999901  45.52000046
C     8.26000023  16.82999992  45.79000092
C    12.28999996  16.04999924  46.79000092
C    13.04999924  16.47999954  45.63000107
C    14.46000004  16.46999931  45.58000183
C     4.55999994  17.61999893  46.04999924
H     4.20154762  16.87441826  45.34026337
H     9.19999981  17.48999977  43.94000244
H     9.94000053  15.67000008  48.39000320
H     7.69000006  15.90999985  49.02999878
H     5.36000013  16.51000023  48.44999695
H     6.90000010  17.77000046  44.54000092
H    14.93999958  16.67000008  44.62999725
H     3.91999984  17.36999893  46.90000153
H     4.44999981  18.63999939  45.65999985
S    15.53999996  14.82999992  48.95999908
C    18.23999977  14.57999992  48.20999908
C    16.95999908  15.07999992  47.94000244
C    16.60000038  15.71000004  46.69000244
C    17.59000015  15.90000057  45.77000046
C    18.86000061  15.34999943  46.00000000
C    19.79999924  15.31000042  44.95999908
C    21.01000023  14.80999947  45.06999969
C    21.44000053  14.26000023  46.33999634
C    20.53999901  14.14999962  47.36999893
C    19.19999886  14.68999958  47.21000290
C    15.15999985  15.88999939  46.63000107
C    14.46000004  15.46000004  47.76000214
C    13.07000065  15.47000027  47.88999939
C    22.89999962  14.01999950  46.68000031
H    23.18843079  14.56081009  47.58134842
H    18.40999985  14.04999924  49.13999939
H    17.30999947  16.28999901  44.79999924
H    19.70000076  15.86999989  44.02999878
H    21.64999962  14.78000069  44.19000244
H    20.79000092  13.76000023  48.36000061
H    12.61999989  14.96000099  48.73000336
H    23.47999954  14.37000084  45.80999756
H    23.19000053  12.97000027  46.81000137
S    16.26000023  12.35000038  52.56999969
C    18.92000008  11.94000053  51.56999969
C    17.51000023  11.87999916  51.45000076
C    16.87999916  11.42000008  50.21999741
C    17.65999985  10.98000050  49.16999817
C    19.04000092  10.98999977  49.29999924
C    19.96000099  10.44999981  48.33000183
C    21.34000015  10.47000027  48.52000427
C    21.93000031  11.06999969  49.66999817
C    21.11000061  11.64000034  50.56999969
C    19.70999908  11.56000042  50.47999954
C    15.40999985  11.72999954  50.13999939
C    14.91000080  12.30000019  51.31000137
C    13.61999989  12.58999920  51.42000198
C    23.42000008  10.98000050  50.00000000
H    23.62536812  11.02957153  51.06932831
H    19.43000031  12.42000008  52.39999771
H    17.23999977  10.47999954  48.29999924
H    19.55000114  10.01000023  47.42000198
H    21.98999786  10.01999950  47.77999878
H    21.45000076  12.05999947  51.52000046
H    13.23999977  13.07000065  52.31999969
H    23.77000046  10.05000019  49.52999878
H    24.07999992  11.73999977  49.55999756
S    12.11999989  11.64999962  47.81000137
C     9.63000011  12.43999958  48.52000427
C    10.92000008  12.31999969  48.86000061
C    11.36000061  12.64000034  50.19000244
C    10.50000000  13.17000008  51.06999969
C     9.11000061  13.34000015  50.83000183
C     8.18000031  13.94999981  51.72999954
C     6.89000034  14.13000011  51.37000275
C     6.39999962  13.56999969  50.12000275
C     7.25000000  12.93000031  49.26000214
C     8.67000008  12.79999924  49.56999969
C    12.77999973  12.31999969  50.34999847
C    13.31999969  11.80999947  49.09000015
C    14.61999989  11.50000000  49.01000214
C     4.94999981  13.73000050  49.66999817
H     4.72571611  13.36367035  48.66820145
H     9.22999954  12.00000000  47.61000061
H    10.93999958  13.38000107  52.04000092
H     8.52000046  14.21000004  52.72999573
H     6.30000019  14.68999958  52.09000015
H     6.98000002  12.71999931  48.22999954
H    15.06999969  11.10000038  48.11000061
H     4.77999973  14.80999947  49.54000092
H     4.28999996  13.35000038  50.45999908
