96

S    12.35999966  16.18000031  44.19000244
C     9.68000031  17.02999878  45.05000305
C    10.95999908  16.44000053  45.27000046
C    11.26999950  16.09000015  46.63999939
C    10.31999969  16.13000107  47.69000244
C     9.03999996  16.72999954  47.43000031
C     8.01000023  16.65999985  48.33000183
C     6.72999954  17.02999878  48.01000214
C     6.39999962  17.48999977  46.70999908
C     7.40000010  17.69000053  45.80999756
C     8.73000050  17.21999931  46.07999802
C    12.69999981  15.85000038  46.84999847
C    13.40000057  15.84000015  45.56999969
C    14.77000046  15.75000000  45.47999954
C     5.01999950  17.79999924  46.37000275
H     4.63655519  17.17690277  45.56203079
H     9.32999992  17.32999992  44.06999969
H    10.52999973  15.73999977  48.68999863
H     8.28999996  16.18999863  49.27000046
H     5.98000002  16.92000008  48.77999878
H     7.20000029  17.81999969  44.75000000
H    15.24000072  15.93999958  44.52000046
H     4.33999968  17.71999931  47.22999954
H     5.05000019  18.86000061  46.09000397
S    15.86999989  15.43000031  49.29000092
C    18.56999969  15.01999950  48.69999695
C    17.28999901  15.39000034  48.30999756
C    16.95000076  15.57999992  46.90999985
C    17.97000122  15.59000015  45.94999695
C    19.27999878  15.25000000  46.32999802
C    20.32999992  15.29000092  45.33000183
C    21.63999939  14.96999931  45.61000061
C    21.93000031  14.65999985  46.97000122
C    20.89999962  14.57999992  47.91999817
C    19.54000092  14.85000038  47.65999603
C    15.51000023  15.67999935  46.70999908
C    14.81999969  15.62000084  47.94000244
C    13.40000057  15.59000015  48.04000092
C    23.32999992  14.40000057  47.30999756
H    23.50542641  14.68068314  48.34852600
H    18.86000061  14.70000076  49.69999695
H    17.68000031  15.70000076  44.91000366
H    20.07999802  15.52000046  44.29999924
H    22.32999992  14.85999966  44.78000259
H    21.24000168  14.40000057  48.94000244
H    12.79000092  15.42000008  48.92000198
H    23.94000053  14.98999977  46.60999680
H    23.50000000  13.34000015  47.11000061
S    16.13000107  12.79999924  52.31999969
C    18.68999863  12.30000019  51.56000137
C    17.38999939  12.27000046  51.20999908
C    16.86000061  11.82999992  49.97000122
C    17.69000053  11.28999901  49.08000183
C    19.10000038  11.39000034  49.27000046
C    20.07999802  10.98000050  48.30999756
C    21.40999985  11.10000038  48.53000259
C    21.86000061  11.50000000  49.84000397
C    21.02000046  11.94000053  50.75000000
C    19.61000061  11.97999954  50.52000046
C    15.39999962  12.15999985  49.82999802
C    14.85999966  12.60000038  51.04999924
C    13.53000069  12.86000061  51.20999908
C    23.31999969  11.21999931  50.17000198
H    23.61243439  11.27706051  51.21849060
H    18.88000107  12.46999931  52.62000275
H    17.22999954  10.80000019  48.22000122
H    19.68000031  10.57999992  47.37999725
H    22.19000053  10.62999916  47.94000244
H    21.35999870  12.10999966  51.77000046
H    13.09000015  13.21000004  52.14000320
H    23.59999847  10.19000053  49.87999725
H    23.94000053  11.79999924  49.47999954
S    12.02999973  12.02000046  47.55000305
C     9.40999985  12.61000061  48.40000153
C    10.76000023  12.53000069  48.72000122
C    11.23999977  12.79999924  50.05000305
C    10.34000015  13.35999966  50.96000290
C     8.96000004  13.40999985  50.65000153
C     8.05000019  14.04999924  51.59000015
C     6.77999973  14.22000027  51.35000229
C     6.24000025  13.88000011  50.07999802
C     7.09000015  13.35000038  49.20999908
C     8.46000004  13.04999924  49.40999985
C    12.68000031  12.58999920  50.13999939
C    13.21000004  12.15000057  48.88000107
C    14.51000023  11.87000084  48.73000336
C     4.79999971  14.23999977  49.65000153
H     4.51922703  13.74324799  48.72129059
H     9.06000042  12.51999950  47.37999725
H    10.70000076  13.88000011  51.84000015
H     8.53999996  14.50000000  52.44999695
H     6.19000006  14.75000000  52.09000015
H     6.74000025  12.96000004  48.25000000
H    14.84000015  11.33999920  47.84999847
H     4.69999981  15.31999969  49.48999786
H     4.17000008  13.76999950  50.41999817
