96

S    12.42000008  16.67000008  44.25000000
C     9.90999985  17.25000000  45.06000137
C    11.06999969  16.63999939  45.37000275
C    11.44000053  16.17000008  46.65000153
C    10.36999893  16.10999870  47.52999878
C     9.09000015  16.64999962  47.25999832
C     8.07999992  16.69000053  48.26000214
C     6.84999990  17.31999969  48.09999847
C     6.54999971  17.80999947  46.79999924
C     7.57000017  17.86999893  45.86000061
C     8.84000015  17.34000015  46.09000397
C    12.89999962  16.05999947  46.79999924
C    13.55999947  16.36000061  45.63999939
C    14.93999958  16.54999924  45.48999786
C     5.13999987  18.22999954  46.39999771
H     4.86977196  17.67493629  45.50167465
H     9.75000000  17.65999985  44.06000137
H    10.59000015  15.85999966  48.56999969
H     8.38000011  16.31000137  49.22999954
H     6.15999985  17.42000008  48.94000244
H     7.42000008  18.42000008  44.93000031
H    15.47999954  16.80999947  44.58000183
H     4.42000008  17.88999939  47.15000153
H     5.03000021  19.29999924  46.17000198
S    16.01000023  15.52999973  49.15999985
C    18.63000107  15.24000072  48.34000015
C    17.42000008  15.71000004  48.04999924
C    17.10000038  16.20000076  46.76000214
C    18.02999878  16.23999977  45.68999863
C    19.36000061  15.82999992  45.98999786
C    20.48000145  16.05999947  45.07999802
C    21.71999931  15.67999935  45.47000122
C    21.94000053  15.17000008  46.77999878
C    20.95000076  14.93000031  47.64999771
C    19.63999939  15.34000015  47.32999802
C    15.67000008  16.28999901  46.68000031
C    14.93999958  16.07999992  47.85999680
C    13.59000015  15.97000027  47.97999954
C    23.38000107  14.80000019  47.16999817
H    23.62949753  15.16038322  48.16798401
H    18.94000053  14.73999977  49.26000214
H    17.71999931  16.76000023  44.79000092
H    20.36000061  16.50000000  44.09000015
H    22.52000046  15.62999916  44.73999786
H    21.18999863  14.47000027  48.61000061
H    13.05999947  15.88000107  48.92000198
H    24.04000092  15.26000023  46.42000198
H    23.51000023  13.71999931  47.04000092
S    12.18999958  16.88999939  50.90000153
C     9.57999992  17.38999939  51.68000031
C    10.81999969  16.90999985  51.95999908
C    11.14999962  16.27000046  53.23999786
C    10.17000008  16.21000099  54.25000000
C     8.88000011  16.70999908  53.96999741
C     7.81000042  16.36999893  54.75000000
C     6.51999998  16.72000122  54.45000076
C     6.19999981  17.46000099  53.22000122
C     7.23000002  17.71000099  52.34000397
C     8.56999969  17.36999893  52.70000076
C    12.55000019  16.17000008  53.36999893
C    13.26000023  16.55999947  52.22000122
C    14.65000057  16.63999939  52.19999695
C     4.80999994  17.89999962  52.97999954
H     4.35725403  17.49601173  52.07450867
H     9.19000053  17.78000069  50.73999786
H    10.27999973  15.42000008  54.98000336
H     8.00000000  15.78999996  55.65000153
H     5.69000006  16.61000061  55.13000107
H     7.16000032  18.02999878  51.30000305
H    15.11999989  16.77999878  51.23000336
H     4.23000002  17.36999893  53.74000168
H     4.67999983  18.98999977  53.01000214
S    15.62000084  15.38000011  55.81999969
C    18.35000038  15.14999962  55.04000092
C    17.09000015  15.57000065  54.79999924
C    16.72999954  16.10000038  53.52000427
C    17.68000031  16.31000137  52.51999664
C    19.02000046  15.90999985  52.81000137
C    20.06999969  16.07999992  51.90000153
C    21.31999969  15.59000015  52.15999985
C    21.60000038  14.89999962  53.33000183
C    20.59999847  14.65999985  54.22000122
C    19.31999969  15.25000000  54.02999878
C    15.32999992  16.28999901  53.31999969
C    14.60000038  16.01000023  54.50000000
C    13.26000023  15.92000008  54.52999878
C    23.03999901  14.77000046  53.68000031
H    23.23966408  15.24063969  54.64266968
H    18.60000038  14.72000027  56.00000000
H    17.36999893  16.61999893  51.52000046
H    19.81999969  16.69999886  51.04000092
H    22.13000107  15.97000027  51.55000305
H    20.81999969  14.30999947  55.21999741
H    12.82999992  15.60999966  55.47999954
H    23.67000198  15.26000023  52.91999817
H    23.38000107  13.73999977  53.81000137
