96

S    12.32999992  16.54000092  44.05000305
C     9.77000046  17.02000046  44.79000092
C    10.95999908  16.52000046  45.13000107
C    11.31000042  16.03000069  46.39999771
C    10.26000023  15.90000057  47.29999924
C     9.01000023  16.48999977  47.05999756
C     7.96999979  16.43000031  48.02999878
C     6.77999973  16.95999908  47.64999771
C     6.40999985  17.38999939  46.31999969
C     7.42000008  17.47999954  45.43000031
C     8.78000069  17.05999947  45.76000214
C    12.69999981  15.76000023  46.53999710
C    13.40000057  15.88999939  45.31000137
C    14.75999928  15.71000004  45.21999741
C     5.00000000  17.80999947  45.90999985
H     4.66762543  17.23918343  45.04293823
H     9.57999992  17.35000038  43.76999664
H    10.47000027  15.40999985  48.25000000
H     8.05999947  15.90999985  48.97999573
H     5.98999977  16.95000076  48.39000320
H     7.27999973  17.87999916  44.43000031
H    15.31000042  15.88999939  44.29999924
H     4.42000008  17.72999954  46.84000015
H     5.00999975  18.89000130  45.72000122
S    15.85000038  15.25000000  49.02000046
C    18.53999901  14.80999947  48.29000092
C    17.27000046  15.21000004  47.94000244
C    16.90999985  15.44000053  46.58000183
C    17.92000008  15.47000027  45.65999985
C    19.25000000  15.14999962  46.00000000
C    20.27000046  15.11000061  44.98000336
C    21.60000038  14.60999966  45.31000137
C    21.88999939  14.37999916  46.59999847
C    20.88999939  14.47000027  47.56999969
C    19.54000092  14.82999992  47.30999756
C    15.48999977  15.52000046  46.43000031
C    14.70000076  15.48999977  47.64999771
C    13.31999969  15.57000065  47.77999878
C    23.26000023  13.94000053  47.02999878
H    23.51492882  14.36973667  47.99872971
H    18.73999977  14.37999916  49.27000046
H    17.64000130  15.52000046  44.61000061
H    19.98999977  15.22999954  43.93000031
H    22.39000130  14.42000008  44.58000183
H    21.14000130  14.22000027  48.60000229
H    12.81999969  15.53999996  48.74000168
H    24.05999947  14.19999981  46.31999969
H    23.26999855  12.86000061  47.22000122
S    11.47999954  16.87999916  50.54999924
C     8.84000015  17.27000046  51.24000168
C    10.11999989  17.04000092  51.63999939
C    10.50000000  16.79999924  52.97000122
C     9.53999996  16.94000053  53.96999741
C     8.19999981  17.14999962  53.61000061
C     7.17999983  17.10000038  54.61000061
C     5.86999989  17.42000008  54.29000092
C     5.55999994  17.81999969  52.97000122
C     6.48999977  17.67000008  52.00000000
C     7.82999992  17.27000046  52.22999954
C    11.87999916  16.46999931  53.13999939
C    12.51999950  16.50000000  51.90000153
C    13.90999985  16.27000046  51.84999847
C     4.25000000  18.38999939  52.54000092
H     3.88668299  17.67063141  51.80609894
H     8.64999962  17.64999962  50.24000168
H     9.78999996  16.70999908  55.00999832
H     7.42000008  17.06999969  55.66999817
H     5.12000036  17.61000061  55.05000305
H     6.21999979  18.04999924  51.02000427
H    14.42000008  16.31000137  50.89000320
H     3.58999991  18.38999939  53.41999817
H     4.34999990  19.44000053  52.22999954
S    15.14999962  15.92000008  55.70000076
C    17.68000031  15.34999943  55.10000229
C    16.47999954  15.76000023  54.66999817
C    16.10999870  15.95999908  53.27999878
C    17.11000061  15.98999977  52.35000229
C    18.38999939  15.65000057  52.76000214
C    19.43000031  15.73999977  51.84999847
C    20.75000000  15.44999981  52.18999863
C    21.02000046  15.00000000  53.53000259
C    20.03999901  15.07999992  54.52000046
C    18.72999954  15.39000034  54.15999985
C    14.67000008  16.15999985  53.08000183
C    14.01999950  16.04999924  54.31000137
C    12.57999992  16.25000000  54.33000183
C    22.39999962  14.60999966  54.02999878
H    22.71459389  15.16054058  54.91658401
H    17.86999893  15.01999950  56.11999893
H    16.97000122  16.25000000  51.30000305
H    19.19999886  16.03000069  50.83000183
H    21.45999908  15.34999943  51.37000275
H    20.26000023  14.88999939  55.56999969
H    12.05999947  16.31000137  55.27999878
H    23.05999947  14.77000046  53.16999817
H    22.43999863  13.53000069  54.20999908
