96

S    12.43000031  17.11000061  44.05000305
C     9.75000000  17.35000038  44.93999863
C    11.00999928  17.01000023  45.20999908
C    11.35000038  16.56999969  46.47999573
C    10.31999969  16.36999893  47.39999771
C     9.00000000  16.75000000  47.08000183
C     7.96000004  16.72999954  48.06000137
C     6.65000010  17.06999969  47.70999908
C     6.37000036  17.56999969  46.40999603
C     7.36999989  17.65999985  45.48999786
C     8.69999981  17.28000069  45.79999924
C    12.81999969  16.50000000  46.65000153
C    13.52000046  16.81999969  45.43000031
C    14.92000008  16.77000046  45.34999847
C     4.96000004  17.89999962  46.04999924
H     4.62749147  17.33402824  45.17981720
H     9.48000050  17.63000107  43.92000198
H    10.48999977  15.82999992  48.33000183
H     8.23999977  16.35000038  49.03999710
H     5.88999987  17.05000114  48.48999786
H     7.22000027  18.06999969  44.48999786
H    15.43000031  17.10000038  44.45000076
H     4.21999979  17.60000038  46.79999924
H     4.76000023  18.96000099  45.90000153
S    15.93000031  15.76000023  49.05000305
C    18.64999962  15.38000011  48.33000183
C    17.38999939  15.85000038  47.97999954
C    17.05000114  16.10999870  46.59000015
C    18.02999878  16.17000008  45.58000183
C    19.29999924  15.59000015  45.90000153
C    20.25000000  15.59999943  44.87999725
C    21.48999977  15.14000034  45.14999771
C    21.80999947  14.70000076  46.46999741
C    20.86999893  14.73999977  47.44999695
C    19.54000092  15.18000031  47.23999786
C    15.59999943  16.39999962  46.45000076
C    14.93000031  16.18000031  47.68000031
C    13.57999992  16.18999863  47.75000000
C    23.19999886  14.42000008  46.81000137
H    23.42265892  14.81504154  47.80119324
H    18.90999985  15.01999950  49.33000183
H    17.87999916  16.32999992  44.52000046
H    19.90999985  16.03000069  43.93000031
H    22.23999977  15.03999901  44.36999893
H    21.19999886  14.65000057  48.47999954
H    13.12999916  16.06999969  48.72000122
H    23.75000000  14.78999996  45.93999863
H    23.40999985  13.35000038  46.86999893
S    16.42000008  13.32999992  52.38999939
C    19.01000023  12.86000061  51.55000305
C    17.67000008  12.89000034  51.27999878
C    17.10000038  12.39999962  49.99000168
C    17.94000053  11.79999924  49.06999969
C    19.37999916  11.90000057  49.23999786
C    20.36000061  11.28000069  48.37999725
C    21.61000061  11.10000038  48.75000000
C    22.17000008  11.59999943  49.95999908
C    21.30000114  12.32999992  50.77999878
C    19.90999985  12.38000011  50.52999878
C    15.67999935  12.60000038  49.86999893
C    15.19999981  13.12000084  51.11999893
C    13.82999992  13.40000057  51.20999908
C    23.59000015  11.19999981  50.38999939
H    23.87898064  11.60994720  51.35774612
H    19.40999985  13.17000008  52.50999832
H    17.53999901  11.32999992  48.16999817
H    20.00000000  10.64000034  47.57999802
H    22.19000053  10.42000008  48.13999939
H    21.56999969  12.55000019  51.81000137
H    13.48000050  13.94000053  52.08000183
H    23.51000023  10.11000061  50.30000305
H    24.30999947  11.52999973  49.62999725
S    12.43000031  12.25000000  47.61000061
C     9.78999996  13.07999992  48.22999954
C    11.13999939  13.10999966  48.54000092
C    11.59000015  13.43999958  49.84000397
C    10.59000015  13.94000053  50.77999878
C     9.26000023  13.85000038  50.47999954
C     8.32999992  14.14999962  51.43000031
C     7.00000000  14.19000053  51.11999893
C     6.53999996  13.81999969  49.86000061
C     7.48000050  13.52000046  48.90999603
C     8.84000015  13.52000046  49.16999817
C    12.98999977  13.15000057  50.05000305
C    13.56999969  12.51999950  48.94000244
C    14.88000011  12.13999939  48.86000061
C     5.10999966  13.64999962  49.54999924
H     4.83845234  13.89219093  48.52252197
H     9.51000023  12.61999989  47.29000092
H    10.88000107  14.29999924  51.76000214
H     8.67000008  14.60999966  52.35000229
H     6.32000017  14.40999985  51.93999863
H     7.13000011  13.14000034  47.95000076
H    15.21000004  11.49000072  48.04999924
H     4.63000011  14.34999943  50.26000214
H     4.76999998  12.64999962  49.85000229
