96

S    12.32999992  17.10000038  44.01000214
C     9.67000008  17.65999985  44.80999756
C    11.00999928  17.19000053  45.14999771
C    11.38000011  16.77999878  46.47999573
C    10.36000061  16.73999977  47.42000198
C     9.07999992  17.09000015  47.11000061
C     8.07999992  17.04000092  48.13999939
C     6.80999994  17.39999962  47.94000244
C     6.38000011  17.89999962  46.66999817
C     7.36000013  18.04000092  45.70000076
C     8.69999981  17.60000038  45.84999847
C    12.81000042  16.48999977  46.60999680
C    13.50000000  16.68000031  45.34999847
C    14.92000008  16.73999977  45.26000214
C     4.92000008  18.12999916  46.32999802
H     4.69383478  17.81195641  45.31225586
H     9.55999947  18.12000084  43.82999802
H    10.52999973  16.22999954  48.36999893
H     8.43999958  16.61999893  49.08000183
H     6.19000006  17.32999992  48.83999634
H     7.11000013  18.45000076  44.72000122
H    15.29999924  16.54000092  44.27000046
H     4.39000034  17.40999985  46.97000122
H     4.55000019  19.14999962  46.50000000
S    16.17000008  16.09000015  49.02000046
C    18.79999924  15.69000053  48.16999817
C    17.54999924  16.09000015  47.85999680
C    17.11000061  16.35000038  46.52999878
C    18.00000000  16.32999992  45.48999786
C    19.34000015  16.04999924  45.77999878
C    20.36000061  15.93999958  44.81999969
C    21.61000061  15.43000031  45.07999802
C    21.94000053  14.98000050  46.38999939
C    20.95999908  14.98999977  47.39999771
C    19.69000053  15.57999992  47.09999847
C    15.70000076  16.54000092  46.39999771
C    15.01999950  16.32999992  47.64999771
C    13.60999966  16.36000061  47.81000137
C    23.32999992  14.60000038  46.86999893
H    23.69649887  15.19469833  47.70672607
H    19.04000092  15.34000015  49.16999817
H    17.71000099  16.40999985  44.43999863
H    20.10999870  16.22999954  43.80000305
H    22.43999863  15.54999924  44.38999939
H    21.18999863  14.85999966  48.44999695
H    13.22000027  16.56999969  48.81000137
H    23.98999977  14.78999996  46.00999832
H    23.45000076  13.55999947  47.21000290
S    16.07999992  13.09999943  52.09999847
C    18.72999954  12.79000092  51.18000031
C    17.38000107  12.71999931  50.91999817
C    16.84999847  12.35000038  49.64000320
C    17.70000076  12.03999996  48.61999893
C    19.09000015  12.17000008  48.85000229
C    19.90999985  11.61000061  47.85999680
C    21.21999931  11.52999973  48.11999893
C    21.83000183  11.92000008  49.36000061
C    21.02999878  12.50000000  50.27999878
C    19.67000008  12.56000042  50.08999634
C    15.44000053  12.68000031  49.61999893
C    14.85000038  13.07999992  50.86999893
C    13.45999908  13.27000046  51.04000092
C    23.23999786  11.50000000  49.71000290
H    23.60659981  11.86660290  50.66880798
H    19.06999969  13.04999924  52.18000031
H    17.25000000  11.28000069  47.98999786
H    19.60000038  11.31000042  46.86000061
H    21.84000015  10.98000050  47.42000198
H    21.32999802  12.69000053  51.30000305
H    13.00000000  13.61999989  51.95999908
H    23.22999954  10.40999985  49.75999832
H    24.01000023  11.79999924  49.00000000
S    12.10999966  12.69000053  47.31999969
C     9.42000008  13.01000023  48.20000076
C    10.76000023  13.02000046  48.47999954
C    11.23999977  13.38000107  49.75000000
C    10.31000042  13.81000042  50.72999954
C     8.94999981  13.78000069  50.43000031
C     8.00000000  14.23999977  51.40999603
C     6.67000008  14.14000034  51.17000198
C     6.25000000  13.90999985  49.85000229
C     7.14999962  13.57999992  48.88000107
C     8.51000023  13.43000031  49.18000031
C    12.65999985  13.26000023  49.89999771
C    13.27000046  12.93000031  48.63999939
C    14.60000038  12.67000008  48.52000427
C     4.77999973  14.15999985  49.64000320
H     4.38368225  13.55185699  48.82686234
H     9.04999924  12.56000042  47.28000259
H    10.57000065  14.15999985  51.72999954
H     8.36000061  14.78999996  52.28000259
H     5.96000004  14.52999973  51.88999939
H     6.86999989  13.45000076  47.84000015
H    14.96999931  12.30000019  47.56999969
H     4.55000019  15.19999981  49.38000107
H     4.19000006  13.94999981  50.54000092
