96

S    12.31999969  16.79000092  44.27999878
C     9.77000046  17.22999954  45.13000107
C    11.05000019  16.88999939  45.44000244
C    11.39999962  16.46999931  46.72000122
C    10.51000023  16.43000031  47.75000000
C     9.17000008  16.80999947  47.44999695
C     8.19999981  16.90000153  48.48999786
C     6.86999989  17.26000023  48.13999939
C     6.44999981  17.64999962  46.77999878
C     7.44000006  17.57999992  45.79000092
C     8.80000019  17.22999954  46.09000397
C    12.84999943  16.29999924  46.81999969
C    13.53999996  16.47999954  45.56000137
C    14.88000011  16.23999977  45.45000076
C     5.00000000  17.93000031  46.45999908
H     4.73590660  17.48984528  45.49842834
H     9.55000019  17.61999893  44.13999939
H    10.80000019  16.09000015  48.74000168
H     8.47999954  16.69000053  49.52000046
H     6.12999964  17.14999962  48.92000198
H     7.13999987  17.89999962  44.79000092
H    15.38000011  16.46000099  44.51000214
H     4.36999989  17.64999962  47.30999756
H     4.88000011  19.02000046  46.51000214
S    15.98000050  15.57999992  49.13999939
C    18.73999977  15.18000031  48.41999817
C    17.38999939  15.44999981  48.09000015
C    17.04000092  15.67000008  46.72999954
C    18.02000046  15.65000057  45.72000122
C    19.37000084  15.34999943  46.00999832
C    20.32999992  15.29000092  44.91000366
C    21.61999893  14.92000008  45.20000076
C    21.97999954  14.68999958  46.52000046
C    21.09000015  14.78999996  47.61000061
C    19.75000000  15.11999989  47.39999771
C    15.55999947  15.88000107  46.59999847
C    14.88000011  15.95000076  47.84999847
C    13.55999947  16.09000015  47.97999954
C    23.45999908  14.42000008  46.90000153
H    23.68424225  14.83231640  47.88377380
H    19.11999893  15.01999950  49.43000031
H    17.73999977  15.86999989  44.68999863
H    19.98999977  15.47000027  43.88999939
H    22.40999985  14.80000019  44.47000122
H    21.32999802  14.56999969  48.64999771
H    13.14000034  16.18000031  48.96999741
H    24.11000061  14.94999981  46.18000031
H    23.57000160  13.32999992  46.86000061
S    11.72000027  17.35000038  51.00000000
C     9.11999989  17.79000092  52.00000000
C    10.39000034  17.26000023  52.15000153
C    10.73999977  16.72999954  53.37999725
C     9.84000015  16.56999969  54.43000031
C     8.50000000  17.01000023  54.16999817
C     7.42999983  16.90999985  55.12000275
C     6.15999985  17.20000076  54.75000000
C     5.84000015  17.75000000  53.48999786
C     6.80999994  18.04000092  52.65999603
C     8.14000034  17.57999992  52.93000031
C    12.11999989  16.51000023  53.47000122
C    12.75000000  16.81999969  52.29999924
C    14.13000011  16.92000008  52.21000290
C     4.38000011  18.20999908  53.15999985
H     4.00368452  17.62841988  52.31842041
H     8.88000011  18.22999954  51.04000092
H    10.10000038  16.15999985  55.40999985
H     7.57000017  16.52000046  56.12999725
H     5.38999987  16.94000053  55.47000122
H     6.60000038  18.47999954  51.69000244
H    14.63000107  17.10000038  51.25999832
H     3.67000008  18.04999924  53.96999741
H     4.32000017  19.27999878  52.90000153
S    15.34000015  15.52000046  55.70000076
C    17.97999954  15.22999954  55.04000092
C    16.75000000  15.76000023  54.65999985
C    16.39999962  16.34000015  53.40000153
C    17.36999893  16.38000107  52.41000366
C    18.68999863  15.88000107  52.75000000
C    19.68000031  15.93000031  51.77999878
C    20.88000107  15.21999931  51.97999954
C    21.15999985  14.61999989  53.23999786
C    20.20999908  14.68999958  54.20000076
C    18.96000099  15.29999924  54.02999878
C    14.96999931  16.59000015  53.29000092
C    14.27999973  16.09000015  54.43999863
C    12.84999943  16.06999969  54.54999924
C    22.56000137  14.32000065  53.64999771
H    22.67951775  14.57397175  54.70323944
H    18.19000053  14.73999977  55.98999786
H    17.10000038  16.72999954  51.42000198
H    19.47999954  16.54999924  50.90999985
H    21.68000031  15.34000015  51.25000000
H    20.50000000  14.30999947  55.17000198
H    12.44999981  15.77999973  55.52000046
H    23.29999924  14.93000031  53.11000061
H    22.79000092  13.27000046  53.41999817
