96

S    12.30999947  17.05999947  44.20999908
C     9.59999943  17.46999931  44.86999893
C    10.88000107  17.07999992  45.22999573
C    11.21000099  16.61999893  46.58000183
C    10.19000053  16.40999985  47.49000168
C     8.85999966  16.90999985  47.18999863
C     7.81000042  16.79000092  48.11999893
C     6.51999998  17.12000084  47.70000076
C     6.28000021  17.72999954  46.52000046
C     7.28999996  17.94000053  45.65000153
C     8.59000015  17.46999931  45.89000320
C    12.58999920  16.36000061  46.77999878
C    13.28999996  16.44000053  45.54999924
C    14.65000057  16.39999962  45.54999924
C     4.90000010  18.13999939  46.06999969
H     4.45682144  17.44664001  45.35519409
H     9.46000004  17.90999985  43.88999939
H    10.31999969  15.93999958  48.44999695
H     8.03999996  16.25000000  49.03999710
H     5.72000027  16.87000084  48.39000320
H     7.17999983  18.47999954  44.71000290
H    15.14999962  16.53000069  44.59000015
H     4.26999998  18.20999908  46.95999908
H     4.88999987  19.11000061  45.56000137
S    15.73999977  15.50000000  49.22999954
C    18.38999939  15.11000061  48.47999954
C    17.14999962  15.54999924  48.15999985
C    16.77999878  16.03000069  46.86999893
C    17.77000046  16.21000099  45.93999863
C    19.12999916  15.80000019  46.25000000
C    20.17999840  15.98999977  45.30000305
C    21.42000008  15.47999954  45.51000214
C    21.71999931  14.84000015  46.81000137
C    20.76999855  14.63000107  47.76000214
C    19.43000031  15.19000053  47.52999878
C    15.36000061  16.10999870  46.69000244
C    14.67000008  15.98999977  47.88999939
C    13.30000019  16.04999924  47.95000076
C    23.13999939  14.47999954  47.18000031
H    23.47921753  15.17257118  47.95030975
H    18.57999992  14.60000038  49.41999817
H    17.42000008  16.36999893  44.92000198
H    19.98999977  16.54999924  44.38999939
H    22.20000076  15.64000034  44.77000427
H    21.11999893  14.21000004  48.69999695
H    12.69000053  15.84000015  48.82999802
H    23.81000137  14.51000023  46.31000137
H    23.15999985  13.50000000  47.67000198
S    11.61000061  17.21999931  50.94999695
C     9.02000046  17.57999992  51.65000153
C    10.21000004  17.13000107  51.95999908
C    10.55999947  16.56999969  53.22999954
C     9.53999996  16.50000000  54.27000046
C     8.27000046  17.02999878  53.92000198
C     7.22000027  17.05000114  54.92000198
C     5.95000029  17.38999939  54.59999847
C     5.59000015  17.75000000  53.22000122
C     6.58999968  17.75000000  52.22999954
C     7.95000029  17.47999954  52.56999969
C    12.02000046  16.39000130  53.40999985
C    12.72999954  16.76000023  52.23999786
C    14.14000034  16.75000000  52.18999863
C     4.18000031  18.01000023  52.84999847
H     3.80896592  17.21983528  52.19725418
H     8.86999989  17.93000031  50.63000107
H     9.68000031  16.15999985  55.28999710
H     7.46999979  16.84999847  55.96000290
H     5.12000036  17.28000069  55.28999710
H     6.44000006  18.15000153  51.23000336
H    14.60000038  16.94000053  51.23000336
H     3.65999985  18.00000000  53.81999969
H     4.13999987  19.02000046  52.42000198
S    15.21000004  15.80000019  55.83000183
C    18.00000000  15.82999992  55.13999939
C    16.69000053  16.02000046  54.78000259
C    16.35000038  16.32999992  53.47999954
C    17.28999901  16.36000061  52.39999771
C    18.68000031  16.13000107  52.76000214
C    19.67000008  16.13000107  51.77999878
C    20.90999985  15.77999973  52.09000015
C    21.30000114  15.36999893  53.43000031
C    20.31999969  15.40999985  54.45000076
C    18.97999954  15.77000046  54.12000275
C    14.88999939  16.42000008  53.36999893
C    14.14000034  16.21000099  54.51000214
C    12.79000092  16.09000015  54.59000015
C    22.72000122  14.96999931  53.79000092
H    23.04977417  15.43168354  54.72069931
H    18.30000114  15.39000034  56.09000397
H    17.00000000  16.50000000  51.37000275
H    19.45000076  16.67000008  50.86999893
H    21.63000107  15.62999916  51.29000092
H    20.55000114  15.01000023  55.43000031
H    12.31999969  15.86999989  55.54999924
H    23.38000107  15.18000031  52.94000244
H    22.67999840  13.86999989  53.87000275
