96

S    12.15999985  16.62999916  44.20999908
C     9.50000000  16.84999847  45.00999832
C    10.80000019  16.48999977  45.34999847
C    11.26000023  16.13000107  46.70000076
C    10.36000061  16.27000046  47.71999741
C     9.01000023  16.53000069  47.41000366
C     7.97999954  16.56999969  48.36000061
C     6.71000004  16.79999924  48.06000137
C     6.28000021  17.09000015  46.79000092
C     7.23999977  17.18000031  45.84999847
C     8.59000015  16.81999969  46.07999802
C    12.71999931  16.10000038  46.77999878
C    13.32999992  16.25000000  45.48999786
C    14.75999928  16.31000137  45.34999847
C     4.84000015  17.35999870  46.45000076
H     4.69785309  17.38842964  45.36968231
H     9.11999989  17.12000084  44.02000046
H    10.57999992  15.78999996  48.67000198
H     8.27000046  16.27000046  49.36999893
H     5.96000004  16.80999947  48.85000229
H     7.07999992  17.42000008  44.79999924
H    15.24000072  16.38000107  44.38000107
H     4.21000004  16.63999939  46.98999786
H     4.48999977  18.27000046  46.95000076
S    15.98999977  15.18000031  48.95999908
C    18.64999962  14.94999981  48.18000031
C    17.32999992  15.39000034  47.87000275
C    16.98999977  15.95999908  46.56000137
C    17.94999886  15.86999989  45.56000137
C    19.31999969  15.48999977  45.87999725
C    20.35000038  15.40999985  44.88999939
C    21.61999893  15.03000069  45.19000244
C    21.98999786  14.59000015  46.52999878
C    21.00000000  14.59000015  47.44999695
C    19.68000031  15.03999901  47.16999817
C    15.51000023  16.10000038  46.52999878
C    14.85999966  15.82999992  47.76000214
C    13.48000050  15.90999985  47.95000076
C    23.40999985  14.29999924  46.90999985
H    23.65075493  14.50427628  47.95326614
H    18.86999893  14.52000046  49.15000153
H    17.69000053  16.07999992  44.52999878
H    20.22999954  15.72999954  43.86000061
H    22.40999985  15.00000000  44.45000076
H    21.12999916  14.19000053  48.46000290
H    12.94000053  15.72999954  48.88000107
H    24.11999893  14.84000015  46.26999664
H    23.64999962  13.25000000  46.72000122
S    11.80999947  16.97999954  50.89000320
C     9.22000027  17.09000015  51.62000275
C    10.44000053  16.70999908  51.90000153
C    10.78999996  16.13999939  53.13999939
C     9.80000019  16.10999870  54.10999680
C     8.42000008  16.59000015  53.89999771
C     7.42000008  16.54000092  54.89999771
C     6.11999989  16.97000122  54.65999985
C     5.82999992  17.51000023  53.31999969
C     6.83000040  17.56000137  52.29999924
C     8.14000034  17.13000107  52.57999802
C    12.23000050  15.90999985  53.34000015
C    12.89000034  16.25000000  52.12999725
C    14.28999996  16.17000008  52.02999878
C     4.44999981  17.97000122  52.95000076
H     3.97088885  17.15973854  52.40042877
H     9.07999992  17.53999901  50.63999939
H    10.07999992  15.64000034  55.05000305
H     7.78999996  16.13999939  55.84000015
H     5.42000008  17.15999985  55.47000122
H     6.67999983  17.95999908  51.30000305
H    14.73000050  16.55999947  51.11999893
H     3.94000006  18.09999847  53.90999603
H     4.57999992  18.86000061  52.31999969
S    15.51000023  15.47999954  55.72999954
C    18.15999985  15.21999931  54.98000336
C    16.87999916  15.53999996  54.65000153
C    16.48999977  15.85000038  53.33000183
C    17.45000076  15.81999969  52.37999725
C    18.85000038  15.62999916  52.64999771
C    19.80999947  15.77999973  51.70999908
C    21.09000015  15.52000046  51.88000107
C    21.51000023  15.18000031  53.22000122
C    20.61000061  15.11999989  54.27999878
C    19.22000122  15.36000061  54.00000000
C    15.06000042  15.86999989  53.15000153
C    14.37999916  15.67000008  54.38000107
C    12.97999954  15.67999935  54.47999954
C    22.95000076  14.89999962  53.55999756
H    23.14573669  15.30545425  54.55266571
H    18.39999962  14.93999958  56.00000000
H    17.23999977  15.86999989  51.31000137
H    19.43000031  16.10999870  50.73999786
H    21.73999977  15.46000004  51.00000000
H    20.88999939  14.88000011  55.30000305
H    12.64000034  15.59999943  55.51000214
H    23.62999916  15.43000031  52.88000107
H    23.12999916  13.81999969  53.44999695
