96

S    12.56999969  16.69999886  44.02999878
C     9.76000023  16.90000153  44.61000061
C    11.10999966  16.59000015  45.00999832
C    11.44999981  16.26000023  46.32999802
C    10.46000004  16.07999992  47.28000259
C     9.15000057  16.34000015  46.97000122
C     8.13000011  16.28999901  47.93000031
C     6.83000040  16.73999977  47.75000000
C     6.48000002  17.39999962  46.49000168
C     7.46999979  17.42000008  45.52999878
C     8.80000019  16.90000153  45.65999985
C    12.89999962  16.21000099  46.59000015
C    13.63000011  16.39000130  45.44000244
C    14.98000050  16.29999924  45.37000275
C     5.12000036  17.86999893  46.03000259
H     4.74815035  17.20496178  45.25054550
H     9.61999989  17.21999931  43.57999802
H    10.54999924  15.65999985  48.27999878
H     8.39999962  15.95999908  48.93000031
H     6.10000038  16.55999947  48.53000259
H     7.23000002  17.89999962  44.58000183
H    15.54999924  16.57999992  44.48999786
H     4.42000008  17.93000031  46.88000107
H     5.05999994  18.89000130  45.65000153
S    15.90000057  15.27999973  49.08000183
C    18.60999870  15.01999950  48.56999969
C    17.35999870  15.29000092  48.09999847
C    17.11000061  15.69000053  46.73999786
C    18.15000153  15.70000076  45.80999756
C    19.47999954  15.29000092  46.24000168
C    20.56999969  15.22999954  45.35999680
C    21.84999847  14.84000015  45.75000000
C    22.04999924  14.48999977  47.09999847
C    21.02000046  14.63000107  48.02000046
C    19.75000000  14.96999931  47.68000031
C    15.69000053  16.03000069  46.53999710
C    14.98999977  15.77999973  47.70000076
C    13.60000038  15.80000019  47.70999908
C    23.39999962  14.04000092  47.51999664
H    23.70950890  14.56960297  48.42100906
H    18.65999985  14.73000050  49.61000061
H    18.13999939  15.90999985  44.75000000
H    20.35000038  15.47999954  44.31999969
H    22.57999802  14.78000069  44.95999908
H    21.15999985  14.27999973  49.02999878
H    13.09000015  15.43000031  48.60000229
H    24.05999947  14.23999977  46.66999817
H    23.44000053  12.94999981  47.67000198
S    16.07999992  12.92000008  52.16999817
C    18.71000099  12.25000000  51.39999771
C    17.36999893  12.28999996  51.12999725
C    16.92000008  11.90000057  49.81999969
C    17.75000000  11.51999950  48.82999802
C    19.13999939  11.46999931  49.08000183
C    20.07999802  10.88000107  48.20999908
C    21.45999908  10.82999992  48.52000427
C    21.93000031  11.26999950  49.78000259
C    21.00000000  11.80999947  50.61000061
C    19.63999939  11.90999985  50.38000107
C    15.44999981  12.10999966  49.68000031
C    14.93000031  12.69999981  50.84999847
C    13.61999989  13.02999973  51.00000000
C    23.31999969  11.00999928  50.20000076
H    23.55075073  11.24796104  51.23837662
H    19.14999962  12.58999920  52.32999802
H    17.38000107  10.98999977  47.95999908
H    19.77000046  10.62999916  47.18999863
H    22.07999992  10.21000004  47.88999939
H    21.31999969  11.97999954  51.63999939
H    13.15999985  13.40000057  51.91999817
H    23.54999924   9.94000053  50.06999969
H    23.94000053  11.64000034  49.54999924
S    12.15000057  12.13999939  47.34000397
C     9.47000027  12.69000053  48.09000015
C    10.85999966  12.60000038  48.44999695
C    11.36999989  12.89999962  49.78000259
C    10.39000034  13.20000076  50.70999908
C     8.97999954  13.25000000  50.34999847
C     8.09000015  13.80000019  51.29000092
C     6.77999973  14.06000042  50.97999954
C     6.30999994  13.59000015  49.72999954
C     7.17000008  13.00000000  48.75999832
C     8.52000046  12.94999981  49.03999710
C    12.81999969  12.76000023  49.86000061
C    13.36999989  12.30999947  48.63999939
C    14.67000008  11.87000084  48.54999924
C     4.94000006  13.96000004  49.34000015
H     4.57541847  13.37381077  48.49645996
H     9.06999969  12.31999969  47.15000153
H    10.62999916  13.63999939  51.68000031
H     8.50000000  13.94999981  52.28000259
H     6.15000010  14.52000046  51.73999786
H     6.77999973  12.81000042  47.76000214
H    15.13000011  11.26999950  47.77000046
H     4.94000006  15.05000019  49.20000076
H     4.38000011  13.59000015  50.20000076
