96

S    12.11999989  16.46999931  44.09999847
C     9.52000046  16.72999954  44.93000031
C    10.65999985  16.17000008  45.13999939
C    11.10999966  15.52999973  46.40999603
C    10.14000034  15.44999981  47.42000198
C     8.85999966  16.03000069  47.22999954
C     7.83999968  15.98999977  48.27000046
C     6.63000011  16.44000053  48.00000000
C     6.32999992  17.06999969  46.70999908
C     7.31999969  17.34000015  45.79000092
C     8.55000019  16.69999886  46.00000000
C    12.53000069  15.31000042  46.45000076
C    13.19000053  15.77000046  45.27999878
C    14.60999966  15.70000076  45.25000000
C     4.86000013  17.26000023  46.31000137
H     4.63310432  16.74948502  45.37405777
H     9.27999973  17.28999901  44.03999710
H    10.26000023  14.78999996  48.27999878
H     7.97999954  15.44999981  49.20999908
H     5.92000008  16.13999939  48.75999832
H     7.09999990  17.88999939  44.87999725
H    15.17000008  15.93000031  44.34999847
H     4.17000008  16.93000031  47.09999847
H     4.69999981  18.34000015  46.22000122
S    15.62000084  14.65000057  49.00000000
C    18.36000061  14.56999969  48.39000320
C    17.05000114  14.89999962  48.02000046
C    16.72000122  15.32999992  46.69000244
C    17.73999977  15.60999966  45.81999969
C    19.06999969  15.18000031  46.09000397
C    20.17999840  15.38000011  45.17000198
C    21.47000122  14.94999981  45.48999786
C    21.68999863  14.09999943  46.65999985
C    20.65000153  14.01999950  47.54000092
C    19.34999847  14.52000046  47.34000397
C    15.31000042  15.32999992  46.45000076
C    14.60999966  15.01000023  47.57999802
C    13.26000023  15.01000023  47.63000107
C    23.11000061  13.81000042  47.08000183
H    23.44438362  14.48573399  47.86719513
H    18.67000008  14.04000092  49.27999878
H    17.50000000  16.03000069  44.85000229
H    19.95000076  15.85999966  44.22999954
H    22.29000092  15.14000034  44.80999756
H    20.94000053  13.68999958  48.53000259
H    12.69999981  15.03000069  48.55999756
H    23.82999802  13.88000011  46.25999832
H    23.12000084  12.75000000  47.36999893
S    16.03000069  12.22000027  52.14000320
C    18.68999863  11.95000076  51.27999878
C    17.30999947  11.90999985  51.00000000
C    16.87000084  11.46999931  49.72999954
C    17.79999924  10.98000050  48.82999802
C    19.17000008  11.10999966  49.02000046
C    20.09000015  10.59999943  48.01000214
C    21.42000008  10.55999947  48.33000183
C    21.87000084  10.93999958  49.64000320
C    21.00000000  11.56999969  50.54000092
C    19.64999962  11.61000061  50.26000214
C    15.42000008  11.56999969  49.59000015
C    14.84000015  12.05999947  50.83000183
C    13.48000050  12.28000069  50.86000061
C    23.23999786  10.67999935  49.97000122
H    23.55061722  11.01885509  50.95832825
H    18.96000099  12.11999989  52.31999969
H    17.54999924  10.21999931  48.09999847
H    19.63999939  10.18000031  47.11999893
H    22.09000015   9.98000050  47.69000244
H    21.40000153  11.92999935  51.47999573
H    12.89000034  12.63000011  51.70000076
H    23.42000008   9.59999943  49.86999893
H    23.80000114  11.13999939  49.13999939
S    12.02000046  11.47999954  47.18999863
C     9.43000031  11.85999966  47.97000122
C    10.77999973  11.90000057  48.34000015
C    11.28000069  12.31999969  49.59999847
C    10.31999969  12.76000023  50.48999786
C     8.98999977  12.84000015  50.19000244
C     8.02999973  13.43000031  51.07999802
C     6.71000004  13.40999985  50.79000092
C     6.26999950  13.02999973  49.50000000
C     7.17000008  12.55000019  48.50000000
C     8.52000046  12.39999962  48.89999771
C    12.69000053  12.05999947  49.72999954
C    13.22000027  11.52999973  48.48999786
C    14.59000015  11.28000069  48.47000122
C     4.79999971  12.98999977  49.12000275
H     4.67167711  12.71909714  48.07202911
H     9.19000053  11.46000004  46.98999786
H    10.54999924  13.12999916  51.49000168
H     8.36999989  13.90999985  51.98999786
H     6.06999969  13.89000034  51.52000046
H     7.00000000  12.38999939  47.43999863
H    15.00000000  10.86999989  47.55000305
H     4.34999990  13.96000004  49.38000107
H     4.30999994  12.28999996  49.80999756
