96

S    11.97000027  16.60000038  43.96999741
C     9.30999947  17.06999969  44.61999893
C    10.57999992  16.65999985  45.05000305
C    10.92000008  16.39000130  46.38999939
C     9.94999981  16.31000137  47.36999893
C     8.60999966  16.62999916  47.00000000
C     7.55999994  16.76000023  48.02000046
C     6.32000017  17.22999954  47.57999802
C     6.05999994  17.53000069  46.25000000
C     7.00000000  17.39999962  45.24000168
C     8.28999996  17.02000046  45.59999847
C    12.32999992  16.42000008  46.58000183
C    13.05999947  16.32999992  45.35999680
C    14.48999977  16.21999931  45.28999710
C     4.76000023  18.13999939  45.80999756
H     4.31451607  17.56518173  44.99806976
H     9.19000053  17.35999870  43.57999802
H    10.21999931  16.22999954  48.41999817
H     7.78999996  16.57999992  49.06999969
H     5.53999996  17.38000107  48.31999969
H     6.85999966  17.69000053  44.20000076
H    15.03999901  16.11999893  44.36000061
H     4.11000013  18.27999878  46.69000244
H     4.94999981  19.19999886  45.58000183
S    15.47999954  15.72000027  49.13999939
C    18.25000000  15.50000000  48.48999786
C    16.95000076  15.73999977  48.15999985
C    16.61999893  15.93999958  46.77999878
C    17.63000107  16.03999901  45.84000015
C    18.94000053  15.73999977  46.12999725
C    19.96999931  15.77000046  45.17000198
C    21.28999901  15.44999981  45.58000183
C    21.51000023  15.13000011  46.95999908
C    20.51000214  15.13000011  47.88999939
C    19.20999908  15.40999985  47.48000336
C    15.18000031  16.13999939  46.56000137
C    14.44000053  16.03999901  47.77999878
C    13.04999924  16.25000000  47.78999710
C    22.90999985  14.68999958  47.42000198
H    23.35423088  15.32858276  48.18352509
H    18.57999992  15.25000000  49.48999786
H    17.40999985  16.47999954  44.86999893
H    19.63000107  16.07999992  44.19000244
H    22.11000061  15.39000034  44.86000061
H    20.62000084  14.86999989  48.94000244
H    12.48000050  16.21999931  48.70999908
H    23.64999962  14.68000031  46.60999680
H    22.93000031  13.64999962  47.77999878
S    16.20000076  13.35000038  52.04999924
C    18.79999924  12.56000042  51.31999969
C    17.46999931  12.71999931  50.97999954
C    16.94000053  12.25999928  49.72000122
C    17.89999962  11.72000027  48.73000336
C    19.26000023  11.68000031  49.03999710
C    20.13000107  11.18999958  48.09000015
C    21.45999908  11.10000038  48.40000153
C    22.04999924  11.67000008  49.59999847
C    21.09999847  12.15000057  50.61999893
C    19.69000053  12.09000015  50.34999847
C    15.48999977  12.28999996  49.72000122
C    15.01999950  12.90999985  50.84000015
C    13.64999962  13.20000076  50.93999863
C    23.54999924  11.38000011  49.98000336
H    23.79179382  11.66446400  51.00407028
H    19.11000061  12.92000008  52.29999924
H    17.60000038  11.50000000  47.70999908
H    19.78000069  10.98999977  47.08000183
H    22.04999924  10.55999947  47.67000198
H    21.25000000  12.35999966  51.68000031
H    13.30000019  13.73999977  51.81999969
H    23.69999886  10.29999924  49.95999908
H    24.25000000  11.79999924  49.23999786
S    12.18999958  12.10999966  47.44999695
C     9.50000000  12.69999981  48.22999954
C    10.88999939  12.61000061  48.52000427
C    11.40999985  13.04999924  49.75999832
C    10.57000065  13.68000031  50.63000107
C     9.21000004  13.85000038  50.40999985
C     8.36999989  14.47999954  51.27999878
C     6.94000006  14.65999985  50.98999786
C     6.40999985  14.18000031  49.75999832
C     7.25000000  13.52000046  48.88999939
C     8.65999985  13.36999989  49.16999817
C    12.79999924  12.86999893  49.89999771
C    13.38999939  12.31999969  48.74000168
C    14.68999958  12.01000023  48.62999725
C     5.01999950  14.57999992  49.31000137
H     4.73634481  14.26175213  48.30682755
H     9.06000042  12.31999969  47.30999756
H    11.00999928  14.04999924  51.56000137
H     8.78000069  14.86999989  52.21000290
H     6.38999987  15.40999985  51.52999878
H     6.90000010  13.30999947  47.88000107
H    15.05000019  11.59000015  47.70000076
H     5.00999975  15.67999935  49.36000061
H     4.25000000  14.11999893  49.93999863
