96

S    12.44999981  17.17000008  44.06999969
C     9.71000004  17.48999977  44.79999924
C    11.02000046  17.15999985  45.18000031
C    11.36000061  16.68000031  46.51000214
C    10.34999943  16.61000061  47.44999695
C     9.01000023  16.87000084  47.09999847
C     7.92999983  16.79999924  48.00000000
C     6.65999985  17.29999924  47.62000275
C     6.32000017  17.64000130  46.30000305
C     7.32999992  17.69000053  45.38999939
C     8.69999981  17.38000107  45.75000000
C    12.76999950  16.56999969  46.65000153
C    13.50999928  16.63999939  45.41999817
C    14.88999939  16.55999947  45.43000031
C     4.92999983  18.25000000  45.96000290
H     4.55987024  17.92785072  44.98669815
H     9.32999992  17.73999977  43.81000137
H    10.59999943  16.36000061  48.47999954
H     8.14999962  16.40999985  48.99000168
H     5.95000029  17.28999901  48.43999863
H     7.13000011  18.02999878  44.38000107
H    15.44999981  16.86000061  44.54999924
H     4.21000004  17.97000122  46.75000000
H     4.94999981  19.34999847  45.93000031
S    16.13000107  15.77000046  49.10999680
C    18.76000023  15.57000065  48.33000183
C    17.48999977  15.86999989  48.00000000
C    17.11000061  16.34000015  46.68000031
C    18.04000092  16.34000015  45.63999939
C    19.38999939  15.98000050  45.90999985
C    20.43999863  16.02000046  44.91000366
C    21.64999962  15.72000027  45.20000076
C    21.97999954  15.39999962  46.56999969
C    21.00000000  15.18000031  47.58999634
C    19.69000053  15.51000023  47.28000259
C    15.64000034  16.46000099  46.58000183
C    14.93000031  16.20000076  47.77999878
C    13.50999928  16.22999954  47.81999969
C    23.43000031  15.31999969  46.88000107
H    23.59198189  15.29182911  47.95753098
H    19.09000015  15.34999943  49.34000015
H    17.85000038  16.61000061  44.61000061
H    20.27000046  16.47999954  43.94000244
H    22.46000099  16.09000015  44.58000183
H    21.32999802  14.93999958  48.59000397
H    13.02999973  16.04999924  48.76999664
H    23.85000038  16.28000069  46.55000305
H    23.85999870  14.42999935  46.39999771
S    16.21999931  13.25000000  52.31999969
C    18.93000031  12.90999985  51.46999741
C    17.57999992  12.81999969  51.17000198
C    17.13000107  12.38000011  49.89999771
C    18.11000061  12.22000027  48.88000107
C    19.47999954  12.18999958  49.15999985
C    20.39999962  11.64999962  48.27999878
C    21.70999908  11.56000042  48.59000397
C    22.20000076  11.95000076  49.91000366
C    21.28000069  12.30999947  50.89000320
C    19.89999962  12.51999950  50.50000000
C    15.67999935  12.65999985  49.79999924
C    15.03999901  13.07000065  50.96000290
C    13.73000050  13.47000027  51.05999756
C    23.69999886  11.84999943  50.19000244
H    23.88371658  11.87826443  51.26403809
H    19.15999985  13.17999935  52.49000168
H    17.86000061  11.90999985  47.87000275
H    20.03999901  11.19999981  47.36000061
H    22.39999962  11.19999981  47.83000183
H    21.45999908  12.53000069  51.93999863
H    13.20000076  13.71000099  51.97999954
H    24.04999924  10.88000107  49.82999802
H    24.28999901  12.60000038  49.65000153
S    12.30999947  12.74000072  47.54000092
C     9.64999962  12.93000031  48.40000153
C    10.95000076  13.02000046  48.62999725
C    11.51000023  13.56999969  49.86999893
C    10.67999935  14.02999973  50.86999893
C     9.31999969  13.82999992  50.70000076
C     8.43000031  14.27999973  51.70000076
C     7.03999996  14.44000053  51.44000244
C     6.48999977  14.27000046  50.15999603
C     7.34000015  13.61999989  49.19000244
C     8.71999931  13.35999966  49.43999863
C    12.92000008  13.43000031  49.94999695
C    13.50000000  13.03999996  48.75000000
C    14.85999966  12.57999992  48.66000366
C     5.12000036  14.63000107  49.82999802
H     4.73469257  13.88792610  49.13073730
H     9.36999989  12.69000053  47.37999725
H    11.13999939  14.34999943  51.79999924
H     8.97000027  14.80999947  52.48000336
H     6.47000027  14.96999931  52.18999863
H     7.04999971  13.19000053  48.22999954
H    15.31000042  12.27000046  47.71999741
H     4.92000008  15.60999966  49.38000107
H     4.57999992  14.65999985  50.79000092
