96

S    11.90000057  17.51000023  44.01000214
C     9.30000019  17.86000061  44.69999695
C    10.53999996  17.47999954  45.07999802
C    10.77999973  17.09000015  46.43000031
C     9.77999973  16.98999977  47.34000397
C     8.56999969  17.42000008  46.93000031
C     7.53000021  17.47999954  47.84999847
C     6.25999975  17.71999931  47.56000137
C     5.88000011  18.06999969  46.18000031
C     6.91999960  18.19000053  45.24000168
C     8.28999996  17.88999939  45.59999847
C    12.27000046  17.02999878  46.52000046
C    12.94999981  17.27000046  45.31999969
C    14.37000084  17.13000107  45.26000214
C     4.48000002  18.35000038  45.89000320
H     4.06492329  17.73830795  45.08897781
H     9.10000038  18.09000015  43.66000366
H    10.06999969  16.54999924  48.29000092
H     7.75000000  17.11000061  48.83999634
H     5.50000000  17.70000076  48.34000015
H     6.80000019  18.25000000  44.15999985
H    14.88000011  17.05999947  44.31000137
H     3.81999993  18.23999977  46.75000000
H     4.41000032  19.40000153  45.59999847
S    15.39999962  15.90999985  48.85000229
C    18.12999916  15.40999985  48.11999893
C    16.87999916  16.01000023  47.85999680
C    16.54999924  16.57999992  46.53999710
C    17.50000000  16.61000061  45.54000092
C    18.76000023  16.06999969  45.79999924
C    19.79999924  16.01000023  44.77000427
C    21.07000160  15.62999916  45.02999878
C    21.45000076  15.19999981  46.35000229
C    20.43999863  15.11999989  47.31999969
C    19.07999992  15.47000027  47.06999969
C    15.06999969  16.90999985  46.40999603
C    14.37000084  16.54999924  47.57999802
C    12.97000027  16.54999924  47.61000061
C    22.79000092  14.70000076  46.69000244
H    23.07201958  15.07602501  47.67345047
H    18.35000038  14.96999931  49.09000015
H    17.42000008  17.00000000  44.52000046
H    19.60000038  16.29999924  43.74000168
H    21.77999878  15.50000000  44.20999908
H    20.73999786  14.75000000  48.29999924
H    12.46999931  16.10000038  48.47000122
H    23.55999947  14.80999947  45.91999817
H    22.60999870  13.63000011  46.81999969
S    12.03999996  17.43000031  50.98999786
C     9.27999973  17.59000015  51.72000122
C    10.62000084  17.20999908  52.04999924
C    10.95000076  16.77999878  53.34999847
C     9.88000011  16.79999924  54.33000183
C     8.63000011  17.21999931  53.96999741
C     7.53000021  16.92000008  54.79999924
C     6.23000050  17.35999870  54.52000046
C     5.92999983  17.90999985  53.22999954
C     6.94999981  18.15999985  52.34000397
C     8.30000019  17.68000031  52.65999603
C    12.35000038  16.69999886  53.55999756
C    13.07000065  16.98999977  52.35000229
C    14.52000046  17.02999878  52.29999924
C     4.46999979  18.12999916  52.83000183
H     4.23084736  17.68068314  51.86614227
H     9.21000004  18.11000061  50.77000046
H     9.92999935  16.25000000  55.26000214
H     7.73000002  16.52000046  55.79000092
H     5.45000029  17.23999977  55.26000214
H     6.71000004  18.73999977  51.45000076
H    15.00000000  17.27000046  51.35000229
H     3.76999998  17.77000046  53.59000397
H     4.13999987  19.15999985  52.63999939
S    15.65000057  15.95999908  55.93000031
C    18.29000092  15.38000011  55.06000137
C    17.05999947  15.88000107  54.79999924
C    16.61000061  16.34000015  53.53000259
C    17.53000069  16.45000076  52.48000336
C    18.90999985  16.05999947  52.68000031
C    19.89999962  16.01000023  51.60999680
C    21.21000099  15.62999916  51.88999939
C    21.56999969  15.05000019  53.18999863
C    20.61000061  14.98999977  54.22000122
C    19.29999924  15.48999977  53.96999741
C    15.19000053  16.62999916  53.46000290
C    14.55999947  16.44000053  54.65999985
C    13.12999916  16.34000015  54.72000122
C    23.01000214  14.80999947  53.47999954
H    23.26649284  15.18123817  54.47221756
H    18.53999901  14.96999931  56.03000259
H    17.20000076  16.68000031  51.46999741
H    19.65999985  16.27000046  50.58000183
H    21.96000099  15.62000084  51.10000229
H    20.86000061  14.42999935  55.11000061
H    12.65999985  15.95000076  55.61999893
H    23.57999992  15.21000004  52.63000107
H    23.22000122  13.73000050  53.40999985
