96

S    12.10999966  16.97000122  44.36999893
C     9.48000050  17.56999969  45.20000076
C    10.72999954  17.12000084  45.52000046
C    11.03999996  16.63999939  46.83000183
C    10.03000069  16.62999916  47.77000046
C     8.73000050  16.92000008  47.47000122
C     7.62000036  16.80999947  48.43999863
C     6.43000031  17.28000069  48.04999924
C     6.10000038  17.64999962  46.72999954
C     7.13000011  17.85000038  45.81999969
C     8.47000027  17.54999924  46.16000366
C    12.46999931  16.45000076  46.95000076
C    13.22000027  16.50000000  45.72999954
C    14.57999992  16.36999893  45.58000183
C     4.69999981  18.02999878  46.29000092
H     4.34087181  17.24710083  45.62202072
H     9.19999981  17.88999939  44.20000076
H    10.15999985  16.27000046  48.79000092
H     7.81000042  16.31999969  49.38999939
H     5.59000015  17.20000076  48.73000336
H     6.84000015  18.17000008  44.81999969
H    15.01000023  16.29999924  44.59000015
H     4.13000011  18.04999924  47.22999954
H     4.76000023  19.04000092  45.86999893
S    15.62999916  15.38000011  49.15999985
C    18.30999947  15.10000038  48.47000122
C    17.01000023  15.42000008  48.06999969
C    16.70999908  15.85000038  46.79999924
C    17.71000099  15.90999985  45.87999725
C    19.04999924  15.50000000  46.14999771
C    20.05000114  15.50000000  45.13999939
C    21.35999870  15.14999962  45.52999878
C    21.63000107  14.68000031  46.84999847
C    20.68000031  14.59000015  47.77000046
C    19.37999916  15.11999989  47.55000305
C    15.29999924  16.11999893  46.73999786
C    14.56999969  15.93000031  47.88999939
C    13.17999935  16.14999962  48.06999969
C    22.98000145  14.14000034  47.11999893
H    23.37491989  14.66890717  47.98740768
H    18.46999931  14.63999939  49.45000076
H    17.61000061  16.28000069  44.86000061
H    19.85999870  15.69000053  44.08000183
H    22.17000008  15.18000031  44.79000092
H    20.92000008  14.14000034  48.72000122
H    12.81000042  16.01000023  49.08000183
H    23.67000198  14.37000084  46.30000305
H    22.81999969  13.05999947  47.09000015
S    11.71000004  17.10000038  51.11999893
C     9.10000038  17.30999947  51.90999985
C    10.34999943  16.92000008  52.19999695
C    10.71000004  16.45000076  53.50999832
C     9.63999939  16.42000008  54.43000031
C     8.31999969  16.77999878  54.19000244
C     7.28999996  16.72000122  55.10000229
C     5.96000004  17.07999992  54.78000259
C     5.65000010  17.38999939  53.46000290
C     6.72999954  17.56000137  52.56000137
C     8.05999947  17.20999908  52.90000153
C    12.15000057  16.38000107  53.64999771
C    12.77999973  16.61000061  52.41000366
C    14.14000034  16.51000023  52.29000092
C     4.23000002  17.76000023  53.08000183
H     3.85194063  17.19291115  52.22936630
H     8.82000065  17.63000107  50.90000153
H     9.85000038  15.97000027  55.40000153
H     7.49000025  16.38000107  56.11000061
H     5.21000004  16.92000008  55.54999924
H     6.61999989  18.04000092  51.59000015
H    14.55999947  16.59000015  51.29000092
H     3.55999994  17.65999985  53.94000244
H     4.19000006  18.84000015  52.87000275
S    15.42000008  15.73999977  56.02000427
C    17.95999908  15.05000019  55.20999908
C    16.72999954  15.53999996  54.91000366
C    16.31999969  15.92000008  53.61000061
C    17.28000069  15.90999985  52.57999802
C    18.59000015  15.54999924  52.90999985
C    19.62000084  15.70000076  51.95999908
C    20.88999939  15.32999992  52.22999954
C    21.27000046  14.84000015  53.50999832
C    20.29000092  14.67000008  54.45000076
C    18.94000053  15.07999992  54.22000122
C    14.89999962  16.23999977  53.41999817
C    14.27000046  16.18000031  54.72000122
C    12.86000061  16.23999977  54.78000259
C    22.63999939  14.42000008  53.92000198
H    22.92916870  14.78331757  54.90614700
H    18.26000023  14.65000057  56.18000031
H    17.06999969  16.28000069  51.58000183
H    19.43000031  16.28999901  51.05999756
H    21.70000076  15.67000008  51.58000183
H    20.55999947  14.18000031  55.38000107
H    12.36999989  15.95999908  55.72000122
H    23.28000069  14.81999969  53.11000061
H    22.67999840  13.32999992  53.95000076
