96

S    12.56999969  16.63999939  44.26000214
C     9.81999969  17.11000061  44.98000336
C    11.10999966  16.61000061  45.30000305
C    11.36000061  16.18000031  46.63000107
C    10.29999924  15.90999985  47.49000168
C     8.96000004  16.44000053  47.25999832
C     7.82000017  16.32999992  48.15000153
C     6.53999996  16.82999992  47.83000183
C     6.30999994  17.30999947  46.46999741
C     7.40999985  17.30999947  45.56999969
C     8.76000023  16.98999977  45.94999695
C    12.82999992  16.15999985  46.81999969
C    13.60000038  16.39000130  45.66999817
C    14.98000050  16.35000038  45.63999939
C     4.90999985  17.68000031  46.04999924
H     4.48553085  16.95631409  45.35414886
H     9.56999969  17.56000137  44.02000046
H    10.42000008  15.39000034  48.43999863
H     7.92000008  15.80999947  49.09999847
H     5.73000002  16.72999954  48.54000092
H     7.23999977  17.71999931  44.58000183
H    15.47000027  16.28999901  44.66999817
H     4.30999994  17.81999969  46.95999908
H     4.94999981  18.67000008  45.56999969
S    16.00000000  15.15999985  49.20000076
C    18.63999939  14.70999908  48.46000290
C    17.39999962  15.24000072  48.13000107
C    17.12000084  15.72999954  46.84999847
C    18.11000061  15.85999966  45.90000153
C    19.40999985  15.44000053  46.20999908
C    20.50000000  15.52000046  45.31000137
C    21.77000046  15.14999962  45.68999863
C    21.98999786  14.55000019  46.93999863
C    20.92000008  14.30999947  47.81000137
C    19.65999985  14.81999969  47.47000122
C    15.65000057  16.06999969  46.79999924
C    14.93000031  15.78999996  47.98999786
C    13.52000046  15.80999947  47.97999954
C    23.40999985  14.26000023  47.29000092
H    23.63786125  14.67299938  48.27265549
H    18.86000061  14.25000000  49.41999817
H    17.85000038  16.25000000  44.91000366
H    20.30999947  15.98000050  44.34000015
H    22.56999969  15.22999954  44.97000122
H    21.11999893  13.76999950  48.74000168
H    12.98999977  15.38000011  48.82999802
H    23.97999954  14.78999996  46.51000214
H    23.47999954  13.17000008  47.22000122
S    15.80999947  12.94000053  52.09000015
C    18.42000008  12.38999939  51.45999908
C    17.12000084  12.28999996  51.05999756
C    16.67000008  11.79999924  49.75999832
C    17.65999985  11.47999954  48.87000275
C    19.00000000  11.50000000  49.26000214
C    19.93999863  10.95000076  48.37999725
C    21.28000069  10.77999973  48.69999695
C    21.71999931  11.26000023  49.97000122
C    20.81999969  11.80999947  50.90999985
C    19.40999985  11.92999935  50.56000137
C    15.21999931  11.97000027  49.56999969
C    14.65999985  12.48999977  50.72999954
C    13.28999996  12.76000023  50.79000092
C    23.25000000  11.21999931  50.21999741
H    23.56599808  11.60622025  51.18906021
H    18.72999954  12.67000008  52.47000122
H    17.47999954  11.18000031  47.84000015
H    19.70000076  10.44000053  47.44999695
H    21.91999817  10.44000053  47.88999939
H    21.11999893  12.13999939  51.90000153
H    12.86999893  13.09999943  51.72999954
H    23.57000160  10.18000031  50.13999939
H    23.74000168  11.79999924  49.43000031
S    12.05000019  12.05999947  47.09000015
C     9.31999969  12.50000000  47.77000046
C    10.65000057  12.56000042  48.15000153
C    11.19999981  12.86000061  49.40000153
C    10.27999973  13.20000076  50.34000015
C     8.89999962  13.25000000  50.06999969
C     8.00000000  13.89999962  50.93000031
C     6.67000008  14.01000023  50.61999893
C     6.06999969  13.52000046  49.38999939
C     6.98999977  13.00000000  48.50000000
C     8.34000015  12.92000008  48.76999664
C    12.56999969  12.61999989  49.61000061
C    13.17999935  12.20999908  48.40999985
C    14.47000027  11.85999966  48.43000031
C     4.65999985  13.96000004  49.01000214
H     4.38587379  13.38433456  48.12594223
H     8.96000004  12.15999985  46.79999924
H    10.67000008  13.55000019  51.29000092
H     8.36999989  14.23999977  51.90000153
H     6.05000019  14.70999908  51.18000031
H     6.74000025  12.84999943  47.45999908
H    14.98000050  11.46000004  47.56000137
H     4.56999969  15.03999901  48.90999603
H     3.96000004  13.68999958  49.81999969
