96

S    12.22000027  16.87000084  44.13999939
C     9.55999947  17.05999947  44.95999908
C    10.85000038  16.63999939  45.24000168
C    11.16000080  16.40999985  46.56999969
C    10.17000008  16.34000015  47.57999802
C     8.85999966  16.51000023  47.27000427
C     7.88000011  16.54000092  48.25000000
C     6.63999987  17.02999878  47.95000076
C     6.25000000  17.34000015  46.62000275
C     7.17000008  17.35999870  45.59999847
C     8.53999996  16.92000008  45.90000153
C    12.61000061  16.28999901  46.75000000
C    13.30999947  16.57999992  45.54000092
C    14.70000076  16.45000076  45.47999954
C     4.78999996  17.79000092  46.29000092
H     4.42276335  17.27154732  45.40431213
H     9.28999996  17.35000038  43.95000076
H    10.50000000  16.28999901  48.61999893
H     8.34000015  16.39999962  49.22999954
H     5.86999989  17.07999992  48.72000122
H     6.94999981  17.81999969  44.64000320
H    15.38000011  16.65999985  44.65000153
H     4.13000011  17.63000107  47.15999985
H     4.74000025  18.88000107  46.12999725
S    15.64000034  15.47999954  49.15999985
C    18.27999878  14.92000008  48.46000290
C    17.04000092  15.44999981  48.16999817
C    16.77999878  15.93999958  46.81999969
C    17.79999924  15.93999958  45.91999817
C    19.13999939  15.59000015  46.25000000
C    20.22000122  15.52999973  45.27999878
C    21.45999908  15.03000069  45.63000107
C    21.61000061  14.57999992  46.93000031
C    20.61000061  14.60000038  47.81000137
C    19.32999992  14.98999977  47.51999664
C    15.36999893  16.20000076  46.63000107
C    14.63000107  16.03999901  47.87000275
C    13.26000023  16.00000000  47.93000031
C    23.03999901  14.17000008  47.36999893
H    23.34326553  14.77653217  48.22337341
H    18.39999962  14.40999985  49.41999817
H    17.54999924  16.09000015  44.86999893
H    20.00000000  15.81999969  44.26000214
H    22.27000046  14.88000011  44.93000031
H    20.69000053  14.14999962  48.80000305
H    12.81000042  15.64000034  48.83999634
H    23.61999893  14.51000023  46.50000000
H    23.15000153  13.09999943  47.60000229
S    12.07999992  17.14999962  50.97999954
C     9.44999981  17.56000137  51.73999786
C    10.67000008  17.12000084  52.05999756
C    10.98999977  16.61999893  53.36000061
C     9.90999985  16.50000000  54.22000122
C     8.71999931  17.07999992  53.95000076
C     7.69000006  17.10000038  54.93999863
C     6.34000015  17.46999931  54.68000031
C     6.06999969  17.84000015  53.37999725
C     7.07000017  17.88999939  52.41000366
C     8.45000076  17.53999901  52.70999908
C    12.39999962  16.42000008  53.50000000
C    13.12000084  16.69999886  52.30999756
C    14.50000000  16.77000046  52.28000259
C     4.61999989  18.22000122  53.04999924
H     4.16511202  17.52683830  52.34239578
H     9.26999950  18.12999916  50.83000183
H    10.01999950  16.00000000  55.18000031
H     7.92999983  16.72999954  55.93999863
H     5.55000019  17.36999893  55.43000031
H     6.75000000  18.09999847  51.38999939
H    15.01000023  17.20999908  51.43000031
H     4.11000013  18.18000031  54.02000046
H     4.59000015  19.22999954  52.61000061
S    15.64000034  15.72000027  55.94999695
C    18.22999954  15.40999985  55.27999878
C    17.02000046  15.85999966  54.95999908
C    16.69000053  16.29999924  53.61999893
C    17.63000107  16.36000061  52.62000275
C    18.86999893  15.84000015  52.88999939
C    19.88000107  15.80000019  51.93000031
C    21.07000160  15.26000023  52.21000290
C    21.34000015  14.67000008  53.43000031
C    20.38999939  14.63000107  54.40999985
C    19.17000008  15.34000015  54.22000122
C    15.26000023  16.46000099  53.41999817
C    14.51000023  16.15999985  54.62999725
C    13.12000084  16.18000031  54.65999985
C    22.77000046  14.22999954  53.73000336
H    23.28116608  14.81216145  54.49674988
H    18.38000107  14.81999969  56.18999863
H    17.28000069  16.62999916  51.63000107
H    19.61000061  16.29999924  51.00000000
H    21.90999985  15.40999985  51.53999710
H    20.65999985  14.04000092  55.27999878
H    12.53000069  15.97000027  55.54000092
H    23.40999985  14.22000027  52.84000015
H    22.70000076  13.15999985  53.99000168
