96

S    11.95000076  16.52000046  44.03999710
C     9.32999992  16.98999977  44.75999832
C    10.57000065  16.51000023  45.13000107
C    10.95999908  16.32999992  46.50000000
C     9.96000004  16.31999969  47.50999832
C     8.60999966  16.55999947  47.19999695
C     7.63000011  16.52000046  48.18000031
C     6.34000015  16.92000008  47.85999680
C     6.00000000  17.43000031  46.50000000
C     6.96000004  17.47999954  45.56999969
C     8.32999992  16.94000053  45.79999924
C    12.41000080  16.11999893  46.62000275
C    13.12000084  16.38000107  45.38999939
C    14.52000046  16.39999962  45.34999847
C     4.56999969  17.69000053  46.10000229
H     4.24034548  17.08197212  45.25754929
H     9.15999985  17.56999969  43.86000061
H    10.31999969  16.13000107  48.52000427
H     7.82000017  16.28000069  49.22000122
H     5.59000015  16.79000092  48.63999939
H     6.71000004  17.97000122  44.62999725
H    15.06000042  16.29999924  44.40999985
H     3.84999990  17.43000031  46.88999939
H     4.50000000  18.77000046  45.90999985
S    15.55999947  15.76000023  49.16999817
C    18.19000053  15.03000069  48.47000122
C    17.01000023  15.62000084  48.20000076
C    16.69000053  16.06999969  46.79999924
C    17.73999977  16.09000015  45.86999893
C    19.06999969  15.67000008  46.20999908
C    20.06999969  15.57999992  45.24000168
C    21.35999870  15.29000092  45.68999863
C    21.55999947  14.77000046  47.01000214
C    20.55000114  14.63999939  47.91999817
C    19.25000000  15.07999992  47.51999664
C    15.22999954  16.21999931  46.56999969
C    14.52000046  16.03000069  47.77000046
C    13.10999966  15.86999989  47.77000046
C    22.95000076  14.28999996  47.42000198
H    23.25892448  14.71387291  48.37551117
H    18.22999954  14.56999969  49.45000076
H    17.43000031  16.32999992  44.85000229
H    19.90999985  15.75000000  44.18000031
H    22.19000053  15.36999893  45.00999832
H    20.76000023  14.11999893  48.85000229
H    12.48999977  15.67999935  48.63999939
H    23.62999916  14.52000046  46.58000183
H    22.93000031  13.19000053  47.51999664
S    15.86999989  12.86000061  52.29999924
C    18.47999954  12.03999996  51.63999939
C    17.11000061  12.15999985  51.29000092
C    16.67000008  11.64000034  50.06999969
C    17.60000038  11.19999981  49.18000031
C    18.96999931  11.19999981  49.43999863
C    19.98999977  10.78999996  48.50000000
C    21.31000137  10.65000057  48.89999771
C    21.70999908  11.05000019  50.21999741
C    20.78000069  11.51000023  51.14999771
C    19.42000008  11.61000061  50.70999908
C    15.32999992  12.05000019  49.85000229
C    14.78999996  12.79999924  50.93999863
C    13.45000076  13.25000000  50.97000122
C    23.16999817  10.88000107  50.48999786
H    23.47077942  11.15929604  51.49976349
H    18.78999901  12.10000038  52.68000031
H    17.35000038  10.90999985  48.16999817
H    19.69000053  10.59000015  47.47000122
H    22.01999855  10.29000092  48.15999985
H    21.07000160  11.64999962  52.18999863
H    12.88000011  13.61999989  51.81999969
H    23.38000107   9.80000019  50.40000153
H    23.82999802  11.39000034  49.79000092
S    12.15000057  12.15000057  47.36000061
C     9.50000000  12.60000038  48.20000076
C    10.84000015  12.56999969  48.47000122
C    11.28999901  13.09000015  49.73999786
C    10.42000008  13.45999908  50.68999863
C     9.04999924  13.38999939  50.50000000
C     8.13000011  14.01999950  51.42000198
C     6.76000023  14.04999924  51.20999908
C     6.30000019  13.53000069  49.97000122
C     7.14999962  12.97000027  48.95999908
C     8.56999969  13.02000046  49.22000122
C    12.74000072  13.03999996  49.82999802
C    13.31999969  12.51000023  48.66000366
C    14.59000015  11.92000008  48.69999695
C     4.86999989  13.66000080  49.68999863
H     4.64988613  13.22710991  48.71416092
H     9.01000023  12.05000019  47.39999771
H    10.82999992  13.94000053  51.58000183
H     8.48999977  14.59000015  52.27000427
H     6.11000013  14.65999985  51.83000183
H     6.71000004  12.71000004  48.00000000
H    14.86999989  11.28999901  47.85999680
H     4.61999989  14.73000050  49.65999985
H     4.23999977  13.15000057  50.44000244
