96

S    17.35999870   1.42000008  57.50000000
C    20.02000046   2.04999995  56.93000031
C    18.81000137   1.57000005  56.49000168
C    18.53000069   1.22000003  55.13000107
C    19.63000107   1.19999993  54.29999924
C    20.95000076   1.46000004  54.75000000
C    22.01000023   1.51999998  53.80000305
C    23.23999786   1.87999988  54.27999878
C    23.45999908   2.38000011  55.59999847
C    22.40999985   2.49000001  56.47999573
C    21.11999893   2.05999994  56.04000092
C    17.11000061   1.08000004  54.84000397
C    16.36999893   1.30999994  56.03000259
C    14.98999977   1.50999999  56.00999832
C    24.84000015   2.80999994  56.04000092
H    25.25961113   2.11301899  56.76542664
H    20.09000015   2.32999992  57.97999954
H    19.47999954   1.08999991  53.22999954
H    21.87999916   1.34000003  52.72999573
H    24.11000061   1.98000002  53.63999939
H    22.42000198   2.86000013  57.50000000
H    14.46000004   1.64000010  56.95000076
H    25.52000046   2.73000002  55.18000031
H    24.77999878   3.88000011  56.27999878
S    13.90999985   0.71000004  52.27000427
C    11.18000031   0.51999998  53.06999969
C    12.48999977   0.86000001  53.33000183
C    12.86999893   1.18000007  54.68000031
C    11.94000053   1.18000007  55.70000076
C    10.57999992   0.85000002  55.44000244
C     9.64999962   0.56000000  56.47999573
C     8.34000015   0.17999999  56.29000092
C     7.90999985   0.02000000  54.94999695
C     8.85999966   0.08000001  53.95000076
C    10.21000004   0.50999999  54.09999847
C    14.30999947   1.28000009  54.80999756
C    15.01999950   0.97000003  53.61999893
C    16.39999962   0.79000002  53.67000198
C     6.43000031  -0.02000000  54.64000320
H     6.12928486   0.36663386  53.66625595
H    10.90000057   0.23000000  52.05999756
H    12.28999996   1.43999994  56.69000244
H     9.98999977   0.82999998  57.48000336
H     7.50999975   0.32999998  56.97999954
H     8.52999973  -0.17999999  52.95000076
H    16.93000031   0.54000002  52.75000000
H     5.92999983   0.61000001  55.38999939
H     6.10000038  -1.04999995  54.84000397
S    14.25000000  -1.52999997  49.80999756
C    11.64999962  -1.97000003  50.63999939
C    12.98999977  -2.22000003  50.84000015
C    13.43000031  -2.84999990  52.04999924
C    12.53999901  -3.35999990  52.97999954
C    11.16000080  -3.14000010  52.76000214
C    10.18000031  -3.63999987  53.67000198
C     8.85999966  -3.61999989  53.29999924
C     8.34000015  -2.98000002  52.14000320
C     9.30000019  -2.45000005  51.31000137
C    10.70000076  -2.47000003  51.56999969
C    14.88000011  -2.75000000  52.04999924
C    15.46000004  -1.94999993  51.04000092
C    16.75000000  -1.42000008  51.05999756
C     6.85999966  -3.00999999  51.84000015
H     6.67429066  -2.75286365  50.79717255
H    11.28000069  -1.42000008  49.78000259
H    12.89999962  -3.91999984  53.82999802
H    10.52000046  -4.11000013  54.59000015
H     8.13000011  -4.01999998  54.00000000
H     9.00000000  -2.05999994  50.34000015
H    17.10000038  -0.82999998  50.21999741
H     6.44999981  -3.98000002  52.14000320
H     6.34999990  -2.27999997  52.49000168
S    18.20000076  -3.16000009  54.33000183
C    20.79000092  -2.45000005  53.80000305
C    19.47000122  -2.29999995  53.43999863
C    19.00000000  -1.59999990  52.29000092
C    19.96999931  -1.10000002  51.43000031
C    21.34000015  -1.23000002  51.73999786
C    22.43999863  -0.83999997  50.90999985
C    23.75999832  -1.14999998  51.11999893
C    24.11999893  -1.75000000  52.36000061
C    23.12999916  -2.13000011  53.23999786
C    21.76000214  -1.84000003  52.97000122
C    17.56999969  -1.77999997  52.12999725
C    17.02999878  -2.68000007  53.09000015
C    15.73999977  -3.17999983  53.06999969
C    25.55999947  -2.16999984  52.52999878
H    25.94365692  -1.73660779  53.45362091
H    21.01000023  -3.16000009  54.59999847
H    19.76000023  -0.65999997  50.45999908
H    22.22999954  -0.34000003  49.97000122
H    24.50000000  -0.97999996  50.34999847
H    23.39999962  -2.79000020  54.05000305
H    15.34000015  -3.58000016  54.00000000
H    26.28000069  -1.81999993  51.77000046
H    25.59999847  -3.25999999  52.42000198
