96

S    17.54999924   2.19000006  57.85999680
C    20.20000076   2.21000004  57.02000046
C    18.88000107   1.94999993  56.72000122
C    18.51000023   1.29999995  55.48999786
C    19.48999977   0.99000001  54.56999969
C    20.84000015   1.34000003  54.79999924
C    21.87999916   1.23000002  53.81999969
C    23.15000153   1.67999995  54.09999847
C    23.47999954   2.19000006  55.38000107
C    22.53000069   2.33999991  56.37000275
C    21.21000099   1.90999997  56.05999756
C    17.05999947   1.19000006  55.47000122
C    16.39000130   1.63000000  56.63000107
C    15.00000000   1.74000001  56.63999939
C    24.92000198   2.51999998  55.70000076
H    25.37653351   1.99926662  56.54173279
H    20.51000214   2.82000017  57.85999680
H    19.23999977   0.56999999  53.59000397
H    21.61000061   0.63000000  52.95999908
H    23.90000153   1.38999999  53.36999893
H    22.65000153   2.75999999  57.36000061
H    14.55000019   1.95999992  57.60000229
H    25.42000008   2.28999996  54.75000000
H    24.93000031   3.60000014  55.90999985
S    13.96000004   0.46000001  53.02000046
C    11.23999977   0.32999998  53.64999771
C    12.51999950   0.68000007  54.02999878
C    12.79999924   1.22000003  55.33000183
C    11.72999954   1.43999994  56.18000031
C    10.39999962   1.31999993  55.72000122
C     9.35000038   1.53999996  56.65000153
C     8.09000015   1.04999995  56.38000107
C     7.76999998   0.41000003  55.14999771
C     8.80999947   0.14999999  54.29999924
C    10.13000011   0.64999998  54.47000122
C    14.23999977   1.34000003  55.54000092
C    14.96999931   0.96000004  54.38999939
C    16.35000038   0.82999998  54.31000137
C     6.38999987  -0.14999999  54.91000366
H     5.90094328   0.32488096  54.05946732
H    11.09000015  -0.38000000  52.84999847
H    11.82000065   1.75999999  57.22000122
H     9.64999962   1.89999998  57.63000107
H     7.40999985   1.12000000  57.22999954
H     8.78999996  -0.55000001  53.47000122
H    16.80999947   0.59999996  53.36000061
H     5.84000015  -0.27000001  55.84999847
H     6.61000013  -1.19999993  54.68000031
S    14.37000084  -1.35000002  49.92000198
C    11.76000023  -1.94000006  50.51000214
C    13.07999992  -2.05999994  50.90999985
C    13.57999992  -2.73000002  52.06999969
C    12.57999992  -3.21000004  52.90999985
C    11.21000099  -3.10999990  52.60000229
C    10.17000008  -3.61000013  53.44999695
C     8.85000038  -3.58999991  53.09000015
C     8.42000008  -3.07000017  51.84000015
C     9.39000034  -2.47000003  51.06999969
C    10.77999973  -2.50000000  51.37000275
C    15.00000000  -2.47000003  52.22999954
C    15.57000065  -1.69000006  51.18999863
C    16.94000053  -1.49000001  51.11000061
C     6.94999981  -2.79000020  51.65999985
H     6.55025053  -3.37534714  50.83194733
H    11.51999950  -1.43000007  49.59000015
H    12.97000027  -3.79999995  53.73000336
H    10.52999973  -3.94000006  54.41999817
H     8.13000011  -3.94000006  53.82999802
H     9.10000038  -1.94000006  50.17000198
H    17.32999992  -1.05999994  50.19000244
H     6.38000011  -3.00000000  52.56999969
H     6.89000034  -1.71000004  51.45999908
S    18.36000061  -3.00000000  54.52000046
C    21.02000046  -2.63000011  53.67000198
C    19.67000008  -2.50000000  53.43000031
C    19.19999886  -1.92000008  52.21000290
C    20.10999870  -1.28999996  51.38000107
C    21.50000000  -1.41000009  51.63999939
C    22.43000031  -0.74000001  50.79000092
C    23.75999832  -0.82999998  51.11999893
C    24.23999977  -1.56000006  52.23999786
C    23.38000107  -2.22000003  53.09999847
C    22.00000000  -2.11999989  52.77999878
C    17.73999977  -1.94999993  52.15999985
C    17.14999962  -2.54999995  53.29999924
C    15.80000019  -2.87999988  53.29000092
C    25.72999954  -1.72000003  52.39999771
H    26.12715912  -1.28028738  53.31488419
H    21.35999870  -3.14000010  54.56999969
H    19.75000000  -0.71000004  50.54000092
H    22.01999855  -0.20999999  49.93999863
H    24.47999954  -0.34000003  50.45999908
H    23.69999886  -2.94999981  53.82999802
H    15.47999954  -3.45000005  54.16999817
H    26.21000099  -1.36999989  51.47999573
H    26.02000046  -2.76999998  52.50000000
