96

S    17.90999985   1.98000002  57.62000275
C    20.62999916   2.14000010  56.86000061
C    19.34000015   1.75999999  56.59000015
C    19.01000023   1.15999997  55.33000183
C    19.96000099   1.05999994  54.33000183
C    21.30000114   1.39999998  54.59999847
C    22.29999924   1.34000003  53.59000397
C    23.62999916   1.61000001  53.83999634
C    23.95000076   2.04999995  55.14999771
C    23.01000214   2.25000000  56.13999939
C    21.65999985   1.87999988  55.90999985
C    17.59000015   0.83999997  55.25000000
C    16.86000061   1.24000001  56.39999771
C    15.47999954   1.42000008  56.38999939
C    25.38000107   2.44000006  55.45000076
H    25.84840012   1.82256484  56.21646881
H    20.75000000   2.86999989  57.65999603
H    19.69000053   0.83999997  53.29999924
H    21.81999969   1.11000001  52.63999939
H    24.37000084   1.56000006  53.04999924
H    23.22999954   2.82999992  57.04000092
H    14.89999962   1.67999995  57.28000259
H    26.01000023   2.49000001  54.54999924
H    25.32999992   3.48000002  55.79999924
S    14.34999943   0.07000000  52.88999939
C    11.64000034   0.29999998  53.43000031
C    12.93000031   0.45000002  53.88000107
C    13.31999969   1.15999997  55.06000137
C    12.25000000   1.59999990  55.83000183
C    10.90999985   1.30999994  55.51000214
C     9.90999985   1.65000010  56.45999908
C     8.56999969   1.36999989  56.32999802
C     8.27999973   0.48000002  55.27000046
C     9.21000004   0.17999999  54.29000092
C    10.54999924   0.64000005  54.27999878
C    14.77000046   1.16999996  55.20999908
C    15.50000000   0.71999997  54.09000015
C    16.87999916   0.56000000  54.08000183
C     6.88000011  -0.04000000  55.06999969
H     6.32684851   0.69753593  54.48847961
H    11.46000004  -0.32999998  52.56999969
H    12.38000011   2.22000003  56.70999908
H    10.42000008   2.07999992  57.30999756
H     7.76999998   1.66999996  57.00000000
H     8.88000011  -0.37000000  53.40999985
H    17.39999962   0.34000003  53.15000153
H     6.39999962  -0.17000002  56.04000092
H     6.70000029  -1.00999999  54.59000015
S    14.29999924  -1.69000006  49.84000397
C    11.67000008  -2.17999983  50.61999893
C    13.01000023  -2.39999986  50.81999969
C    13.50000000  -3.05000019  52.00000000
C    12.56000042  -3.42999983  52.94000244
C    11.17000008  -3.25999999  52.72999573
C    10.21000004  -3.75999975  53.64999771
C     8.88000011  -3.47000003  53.44999695
C     8.40999985  -2.73999977  52.31999969
C     9.30000019  -2.33999991  51.35000229
C    10.67999935  -2.61999989  51.53999710
C    14.94999981  -2.94000006  52.09999847
C    15.51000023  -2.20000005  51.03000259
C    16.87000084  -1.89999998  51.04999924
C     6.90999985  -2.63999987  52.15999985
H     6.55460978  -3.35788822  51.42078781
H    11.43000031  -1.52999997  49.78000259
H    12.97999954  -3.81000018  53.86000061
H    10.50000000  -4.32000017  54.52999878
H     8.18000031  -3.93000007  54.13999939
H     8.88000011  -1.67999995  50.59999847
H    17.35999870  -1.36000013  50.24000168
H     6.37000036  -2.72000027  53.11000061
H     6.75000000  -1.61000001  51.81999969
S    18.19000053  -3.28999996  54.58000183
C    20.85000038  -2.80999994  53.88000107
C    19.52000046  -2.61999989  53.61000061
C    19.04000092  -1.98000002  52.42000198
C    19.98999977  -1.33000004  51.65999985
C    21.38000107  -1.46000004  51.90999985
C    22.39999962  -0.94999999  51.04999924
C    23.72999954  -1.15999997  51.32999802
C    24.11999893  -1.87000012  52.49000168
C    23.19999886  -2.33999991  53.40999985
C    21.83000183  -2.15000010  53.09000015
C    17.64999962  -2.28999996  52.15000153
C    17.05999947  -2.99000001  53.22999954
C    15.71000004  -3.28999996  53.22999954
C    25.55999947  -2.31999993  52.55000305
H    26.05812836  -1.75782549  53.33989334
H    21.09999847  -3.52999973  54.65999985
H    19.69000053  -0.90000004  50.70000076
H    22.07999992  -0.39999998  50.17000198
H    24.51000023  -1.01999998  50.59999847
H    23.52000046  -2.94000006  54.26000214
H    15.26999950  -3.75999975  54.09999847
H    26.04000092  -2.10999990  51.59000015
H    25.66999817  -3.38999987  52.77000046
