96

S    17.57999992   2.25999999  57.63000107
C    20.22999954   2.38000011  56.91999817
C    18.94000053   2.16000009  56.49000168
C    18.52000046   1.63000000  55.22999573
C    19.52000046   1.35000002  54.31999969
C    20.86999893   1.62000000  54.62999725
C    21.88999939   1.58000004  53.62999725
C    23.21000099   1.87999988  53.88999939
C    23.54000092   2.36000013  55.18000031
C    22.55000114   2.57999992  56.11000061
C    21.21000099   2.14000010  55.93000031
C    17.06999969   1.59999990  55.13000107
C    16.40999985   1.85000002  56.36000061
C    15.03000069   1.94999993  56.45000076
C    24.99000168   2.57999992  55.54000092
H    25.35200691   1.98375499  56.37758255
H    20.39999962   2.93000007  57.84000015
H    19.26000023   1.02999997  53.30999756
H    21.57999992   1.15999997  52.68000031
H    23.94000053   1.69000006  53.11000061
H    22.75000000   2.96999979  57.11000061
H    14.52999973   2.38000011  57.31999969
H    25.63999939   2.33999991  54.68999863
H    25.10999870   3.63999987  55.79999924
S    13.85000038   1.03999996  52.78999710
C    11.13999939   0.88000000  53.48999786
C    12.44999981   1.05999994  53.88000107
C    12.76999950   1.31999993  55.25000000
C    11.77000046   1.50000000  56.18999863
C    10.42000008   1.28999996  55.80999756
C     9.38000011   1.36999989  56.77999878
C     8.06999969   1.19000006  56.39999771
C     7.72000027   1.00000000  55.02999878
C     8.73000050   0.82000005  54.10999680
C    10.10000038   1.08000004  54.43000031
C    14.19999981   1.56000006  55.40000153
C    14.88999939   1.46000004  54.15999985
C    16.27000046   1.46000004  53.99000168
C     6.32999992   0.57999998  54.61000061
H     5.97356939   1.26434624  53.84011078
H    10.97000027   0.28000000  52.60000229
H    12.01000023   1.54999995  57.25000000
H     9.72999954   1.72999990  57.74000168
H     7.22000027   1.19999993  57.08000183
H     8.51000023   0.50999999  53.09999847
H    16.72000122   1.42000008  53.00000000
H     5.65000010   0.61000001  55.47000122
H     6.39999962  -0.46000001  54.27000046
S    17.94000053   3.10999990  51.66999817
C    20.66999817   3.10999990  51.07999802
C    19.38999939   2.77999997  50.70000076
C    19.04999924   2.17999983  49.45000076
C    20.10999870   1.87999988  48.60000229
C    21.45999908   2.10999990  48.95000076
C    22.52000046   1.86000001  48.02999878
C    23.85000038   2.02999997  48.31999969
C    24.11000061   2.72000027  49.52999878
C    23.09000015   3.05999994  50.38999939
C    21.73000145   2.69000006  50.22999573
C    17.61999893   1.98000002  49.27999878
C    16.88999939   2.45000005  50.40000153
C    15.50000000   2.43000007  50.44000244
C    25.55000114   3.05999994  49.86000061
H    25.99729919   2.46360302  50.65519714
H    20.84000015   3.84000015  51.86999893
H    19.90999985   1.29999995  47.70999908
H    22.21999931   1.57000005  47.02000046
H    24.65999985   1.74000001  47.64999771
H    23.23999786   3.70000005  51.25000000
H    14.93000031   2.77999997  51.29000092
H    26.12999916   3.03999996  48.93000031
H    25.55999947   4.09999990  50.19000244
S    14.46000004   1.47000003  46.75000000
C    11.77999973   1.18000007  47.36000061
C    13.02000046   1.61000001  47.77999878
C    13.31999969   2.07999992  49.09999847
C    12.22000027   2.22000003  49.93000031
C    10.90999985   1.86000001  49.55999756
C     9.85000038   1.90999997  50.51000214
C     8.56000042   1.62000000  50.13000107
C     8.31999969   1.15999997  48.81000137
C     9.34000015   0.99000001  47.90000153
C    10.69000053   1.30999994  48.25000000
C    14.75999928   2.14000010  49.29000092
C    15.51000023   1.70000005  48.16999817
C    16.87000084   1.46000004  48.22000122
C     6.89000034   0.75000000  48.50999832
H     6.40426636   1.32859468  47.72425461
H    11.73999977   0.81000000  46.33999634
H    12.31999969   2.53999996  50.97000122
H    10.07999992   2.26999998  51.51000214
H     7.69999981   1.66999996  50.79000092
H     9.17000008   0.78000003  46.84999847
H    17.30999947   1.18000007  47.27000427
H     6.32999992   0.68000007  49.45000076
H     6.80000019  -0.29999998  48.20999908
