96

S    17.52000046   1.56000006  57.63000107
C    20.22999954   1.67999995  56.90000153
C    18.95000076   1.25999999  56.63000107
C    18.52000046   0.88000000  55.31000137
C    19.51000023   0.71999997  54.36000061
C    20.86999893   1.00999999  54.61999893
C    21.87000084   0.82999998  53.62999725
C    23.18000031   1.04999995  54.00000000
C    23.54000092   1.65000010  55.24000168
C    22.59000015   1.84000003  56.20999908
C    21.22999954   1.56000006  55.90000153
C    17.07999992   0.88000000  55.13000107
C    16.38000107   1.22000003  56.31000137
C    14.98999977   1.22000003  56.37000275
C    25.00999832   1.97000003  55.43000031
H    25.43927956   1.27599907  56.15262222
H    20.51000214   2.00000000  57.90000153
H    19.31999969   0.52999997  53.30999756
H    21.63000107   0.41999999  52.64999771
H    23.97000122   0.90999997  53.27000046
H    22.88999939   2.42000008  57.08000183
H    14.35999966   1.53999996  57.19999695
H    25.43999863   2.04999995  54.41999817
H    25.15999985   3.02999997  55.65999985
S    13.82999992   0.09000000  52.78999710
C    11.13999939   0.02000000  53.50000000
C    12.43000031   0.32000002  53.86000061
C    12.76000023   0.69999999  55.20000076
C    11.78999996   1.00000000  56.13999939
C    10.46000004   0.71999997  55.76000214
C     9.38000011   0.75999999  56.69000244
C     8.07999992   0.55000001  56.31000137
C     7.76999998   0.25999999  54.94999695
C     8.76000023   0.04000000  54.02999878
C    10.11000061   0.20999999  54.45999908
C    14.22000027   0.78000003  55.28999710
C    14.94999981   0.48999998  54.10999680
C    16.32999992   0.54000002  54.00000000
C     6.34999990  -0.07000000  54.54000092
H     5.84998131   0.55145186  53.79711533
H    10.85000038  -0.28999999  52.50000000
H    11.90000057   1.36999989  57.15999985
H     9.59000015   1.12000000  57.69000244
H     7.27999973   0.61000001  57.04000092
H     8.57999992  -0.20999999  52.98999786
H    16.84999847   0.19000000  53.11000061
H     5.88000011  -0.05000000  55.52999878
H     6.34000015  -1.14999998  54.33000183
S    17.81999969   2.10999990  51.51000214
C    20.52000046   2.02999997  50.84999847
C    19.22999954   1.70000005  50.52999878
C    18.88000107   1.42000008  49.15999985
C    19.88000107   1.21000004  48.22999954
C    21.21999931   1.53999996  48.55999756
C    22.30999947   1.39999998  47.64999771
C    23.61000061   1.71000004  47.97000122
C    23.85000038   2.38000011  49.20000076
C    22.84000015   2.59000015  50.11000061
C    21.54999924   2.03999996  49.86999893
C    17.45000076   1.51999998  48.95000076
C    16.75000000   1.97000003  50.11000061
C    15.36000061   2.04999995  50.19000244
C    25.25000000   2.86999989  49.51000214
H    25.71856689   2.18844700  50.21995163
H    20.75000000   2.56999993  51.77000046
H    19.55999947   0.78000003  47.29000092
H    22.11000061   0.99000001  46.65999985
H    24.34999847   1.52999997  47.19999695
H    23.03999901   3.22000003  50.97000122
H    14.85000038   2.16999984  51.13999939
H    25.75000000   2.79000020  48.53000259
H    25.29000092   3.91999984  49.80999756
S    14.23999977   0.86000001  46.53999710
C    11.56999969   0.50999999  47.42000198
C    12.84999943   0.96000004  47.63999939
C    13.22000027   1.49000001  48.90999603
C    12.30999947   1.67999995  49.93999863
C    10.98000050   1.28000009  49.69999695
C     9.94999981   1.52999997  50.65000153
C     8.67000008   1.07000005  50.40999985
C     8.27999973   0.46000001  49.19000244
C     9.23999977   0.32999998  48.22000122
C    10.59000015   0.74000001  48.41999817
C    14.65000057   1.72000003  49.02999878
C    15.34000015   1.35000002  47.84999847
C    16.72999954   1.26999998  47.77999878
C     6.81999969   0.17000002  48.88999939
H     6.27851486   0.77560824  48.16327286
H    11.19999981   0.12000000  46.47999573
H    12.69000053   2.06999993  50.87999725
H    10.19000053   1.98000002  51.60999680
H     8.01000023   1.29999995  51.24000168
H     8.97999954  -0.08000001  47.25000000
H    17.28000069   1.04999995  46.86999893
H     6.24000025   0.00000000  49.79999924
H     6.84000015  -0.83999997  48.46000290
