96

S    17.38999939   2.14000010  57.60000229
C    20.07999802   2.00999999  57.01000214
C    18.79999924   1.75000000  56.58000183
C    18.46999931   1.25000000  55.28999710
C    19.44000053   0.90999997  54.36000061
C    20.76000023   1.23000002  54.73999786
C    21.83000183   1.13999999  53.80000305
C    23.12999916   1.52999997  54.02000046
C    23.38999939   2.07999992  55.30000305
C    22.40999985   2.20000005  56.26999664
C    21.09000015   1.72999990  56.04999924
C    17.02000046   1.26999998  55.08999634
C    16.31999969   1.70000005  56.25000000
C    14.93999958   1.72999990  56.39999771
C    24.76000023   2.64999986  55.58000183
H    25.30859756   2.08715248  56.33521271
H    20.15999985   2.56999993  57.94000244
H    19.18000031   0.48000002  53.40000153
H    21.60000038   0.64000005  52.85999680
H    23.82999802   1.50999999  53.18999863
H    22.57999802   2.72000027  57.21000290
H    14.47999954   1.98000002  57.34000397
H    25.45000076   2.47000003  54.75000000
H    24.70999908   3.67000008  55.97000122
S    13.69999981   0.56000000  52.81999969
C    11.03999996   0.61000001  53.54999924
C    12.34000015   0.92000002  53.88999939
C    12.71999931   1.31999993  55.20999908
C    11.73999977   1.59999990  56.14999771
C    10.39000034   1.34000003  55.81999969
C     9.28999996   1.54999995  56.70000076
C     7.99000025   1.25000000  56.36000061
C     7.72000027   0.69000000  55.08999634
C     8.71999931   0.39000002  54.20000076
C    10.03999901   0.81000000  54.52999878
C    14.18000031   1.35000002  55.28999710
C    14.85000038   0.90000004  54.13000107
C    16.23999977   0.79999995  54.02999878
C     6.25999975   0.37000000  54.82999802
H     5.85613108   0.87306470  53.95141220
H    10.80999947   0.20999999  52.56000137
H    11.95000076   1.87000012  57.18000031
H     9.39999962   1.87999988  57.72999573
H     7.18999958   1.38999999  57.06999969
H     8.60999966  -0.25999999  53.33000183
H    16.75000000   0.29999998  53.22000122
H     5.65000010   0.57999998  55.72000122
H     6.11999989  -0.71000004  54.69999695
S    14.82999992  -1.26999998  49.99000168
C    12.10999966  -1.79000008  50.45999908
C    13.43000031  -2.01999998  50.77000046
C    13.89999962  -2.63000011  51.97999954
C    12.93000031  -3.17000008  52.81000137
C    11.54999924  -2.96000004  52.56999969
C    10.59999943  -3.48000002  53.50000000
C     9.26999950  -3.42999983  53.16999817
C     8.89999962  -2.63000011  52.05999756
C     9.77000046  -1.98000002  51.20999908
C    11.14999962  -2.28999996  51.36000061
C    15.32999992  -2.50000000  52.23999786
C    15.98000050  -1.69000006  51.27999878
C    17.35000038  -1.48000002  51.26999664
C     7.44000006  -2.24000001  52.01000214
H     7.04178524  -2.76621222  51.14246368
H    11.77999973  -1.19999993  49.61000061
H    13.22999954  -3.67000008  53.72000122
H    10.95000076  -3.98999977  54.38999939
H     8.42000008  -3.74000025  53.77999878
H     9.42000008  -1.36999989  50.38000107
H    17.80999947  -1.00000000  50.40999985
H     6.86999989  -2.46000004  52.91999817
H     7.30999994  -1.15999997  51.86999893
S    18.63000107  -3.15000010  54.65000153
C    21.31000137  -2.72000027  53.94000244
C    19.97999954  -2.59000015  53.63999939
C    19.54000092  -2.14000010  52.36000061
C    20.50000000  -1.74000001  51.45000076
C    21.87999916  -1.80999994  51.73999786
C    22.82999992  -1.33000004  50.79000092
C    24.15999985  -1.33000004  51.11999893
C    24.60000038  -1.79000008  52.38999939
C    23.69999886  -2.29999995  53.29000092
C    22.30999947  -2.34999990  53.00000000
C    18.09000015  -2.09999990  52.29000092
C    17.43999863  -2.69000006  53.40999985
C    16.05999947  -2.84999990  53.37999725
C    25.96999931  -1.38000000  52.88999939
H    26.11959076  -1.75754094  53.90152740
H    21.63999939  -3.07999992  54.91000366
H    20.10000038  -1.36999989  50.51000214
H    22.40999985  -0.79999995  49.93999863
H    24.86000061  -0.64000005  50.65000153
H    23.98999977  -2.75000000  54.23999786
H    15.48999977  -3.35999990  54.15000153
H    25.93000031  -0.28999999  52.98999786
H    26.81999969  -1.59999990  52.23999786
