96

S    17.75000000   1.99000001  57.77000046
C    20.45000076   2.33999991  57.11999893
C    19.18000031   1.97000003  56.72000122
C    18.81000137   1.49000001  55.41999817
C    19.85000038   1.34000003  54.52000046
C    21.14999962   1.79000008  54.84000397
C    22.21999931   1.65999997  53.90999603
C    23.52999878   1.97000003  54.19000244
C    23.82999802   2.46000004  55.48999786
C    22.82999992   2.66999984  56.40999603
C    21.47999954   2.28999996  56.14999771
C    17.36999893   1.30999994  55.27000046
C    16.62999916   1.62000000  56.44000244
C    15.25000000   1.69000006  56.50000000
C    25.29999924   2.61000013  55.80999756
H    25.67664146   1.83539832  56.47800446
H    20.56999969   2.69000006  58.13999939
H    19.67000008   0.78000003  53.60000229
H    21.87000084   1.10000002  53.04000092
H    24.30000114   1.50000000  53.59000397
H    23.06999969   3.02999997  57.39999771
H    14.70999908   1.84000003  57.43000031
H    25.89999962   2.63999987  54.89999771
H    25.51000214   3.58999991  56.26999664
S    14.21000004   0.45000002  52.81999969
C    11.50000000   0.46999997  53.40999985
C    12.76999950   0.83999997  53.79000092
C    13.12999916   1.29999995  55.10000229
C    12.10000038   1.49000001  56.00999832
C    10.80000019   1.02999997  55.70000076
C     9.77000046   0.88999999  56.68000031
C     8.51000023   0.46000001  56.35000229
C     8.23000050   0.02000000  55.02999878
C     9.19999981   0.09000000  54.05000305
C    10.46000004   0.65999997  54.34999847
C    14.55999947   1.33000004  55.33000183
C    15.26000023   0.87000000  54.19000244
C    16.64999962   0.88999999  54.15000153
C     6.88000011  -0.54000002  54.62999725
H     6.31205130   0.15573734  54.01235199
H    11.26000023  -0.14999999  52.55000305
H    12.38999939   1.80000007  57.01000214
H     9.92999935   1.10000002  57.72999573
H     7.77999973   0.25999999  57.12999725
H     9.01000023  -0.29999998  53.06000137
H    17.25000000   0.64000005  53.27000046
H     6.26999950  -0.75000000  55.51000214
H     6.98000002  -1.49000001  54.09999847
S    14.23999977  -1.36000013  49.93000031
C    11.56999969  -1.85000002  50.56999969
C    12.89999962  -2.02999997  50.86999893
C    13.42000008  -2.66999984  52.04999924
C    12.51999950  -3.22000003  52.95000076
C    11.13999939  -3.12999988  52.68000031
C    10.19000053  -3.63999987  53.61999893
C     8.85000038  -3.76999998  53.34000015
C     8.40999985  -3.19999981  52.11999893
C     9.26999950  -2.54999995  51.27999878
C    10.67999935  -2.50000000  51.46999741
C    14.86999989  -2.64999986  52.11999893
C    15.47999954  -1.88999999  51.09000397
C    16.81999969  -1.53999996  51.04999924
C     6.96000004  -3.37000012  51.70999908
H     6.66119242  -2.81507206  50.82069016
H    11.19999981  -1.30999994  49.71000290
H    12.69000053  -3.71000004  53.90999603
H    10.57000065  -3.86999989  54.61000061
H     8.23000050  -4.23000002  54.10999680
H     8.93999958  -2.17999983  50.31000137
H    17.23999977  -0.93000001  50.26000214
H     6.76000023  -4.44000006  51.55000305
H     6.35999966  -2.99000001  52.55000305
S    18.27000046  -3.19999981  54.38000107
C    20.89999962  -2.50999975  53.76999664
C    19.55999947  -2.38999987  53.47000122
C    19.06999969  -1.72000003  52.29999924
C    19.98999977  -1.13999999  51.44000244
C    21.38000107  -1.29999995  51.65000153
C    22.27999878  -0.65999997  50.76000214
C    23.61999893  -0.71999997  51.04000092
C    24.09000015  -1.36999989  52.21000290
C    23.23999786  -2.00000000  53.09000015
C    21.83000183  -1.95999992  52.84999847
C    17.64000130  -1.90999997  52.11999893
C    17.07999992  -2.68000007  53.16999817
C    15.71000004  -2.91000009  53.20999908
C    25.59000015  -1.34000003  52.39999771
H    25.96524048  -1.64444041  53.37704086
H    21.28999901  -3.07000017  54.61000061
H    19.56999969  -0.64999998  50.56000137
H    21.94000053  -0.14000000  49.86999893
H    24.30000114  -0.20999999  50.35999680
H    23.61000061  -2.48000002  53.99000168
H    15.29999924  -3.40000010  54.09000015
H    25.92000008  -0.31000000  52.25000000
H    25.94000053  -2.04999995  51.63999939
