96

S    17.65999985   1.63000000  57.71999741
C    20.34000015   1.80000007  56.98999786
C    19.04999924   1.51999998  56.62000275
C    18.72999954   1.08999991  55.28999710
C    19.72999954   0.93999994  54.34000015
C    21.04000092   1.34000003  54.68000031
C    22.11000061   1.23000002  53.74000168
C    23.38000107   1.63000000  54.06000137
C    23.71000099   2.02999997  55.38000107
C    22.69000053   2.22000003  56.27999878
C    21.35999870   1.81999993  56.00000000
C    17.28999901   0.88999999  55.15999603
C    16.60000038   1.21000004  56.35000229
C    15.22999954   1.47000003  56.33999634
C    25.15000153   2.33999991  55.75000000
H    25.58520889   1.61227500  56.43491745
H    20.45999908   2.05999994  58.04000092
H    19.56999969   0.35999998  53.43999863
H    21.88999939   0.69999999  52.81999969
H    24.14999962   1.70000005  53.29000092
H    22.78000069   2.48000002  57.32999802
H    14.52000046   1.72999990  57.11999893
H    25.68000031   2.28999996  54.79000092
H    25.06999969   3.35000014  56.18000031
S    14.02999973   0.22000000  52.77000046
C    11.31999969   0.37000000  53.36999893
C    12.61000061   0.68000007  53.74000168
C    13.03999996   1.14999998  55.01999664
C    11.97999954   1.38000000  55.89000320
C    10.62999916   1.00999999  55.66999817
C     9.57999992   1.11000001  56.62000275
C     8.27999973   0.79999995  56.33999634
C     7.97999954   0.25000000  55.06000137
C     8.97000027   0.07000000  54.13000107
C    10.31000042   0.50999999  54.36000061
C    14.47999954   1.14999998  55.20000076
C    15.17000008   0.61000001  54.08000183
C    16.54999924   0.51999998  54.02999878
C     6.53999996  -0.09999999  54.75000000
H     5.99120283   0.49868819  54.02302551
H    11.14999962  -0.20999999  52.47000122
H    12.27000046   1.61000001  56.90999985
H     9.82999992   1.53999996  57.58999634
H     7.50999975   0.94999999  57.09000015
H     8.85000038  -0.34999999  53.13000107
H    16.97999954   0.32999998  53.04999924
H     5.86999989  -0.25000000  55.61000061
H     6.60000038  -1.12000000  54.34000015
S    17.94000053   2.31999993  51.79000092
C    20.63999939   2.47000003  51.17000198
C    19.37999916   2.06999993  50.79000092
C    19.07999992   1.59999990  49.47000122
C    20.12000084   1.52999997  48.56999969
C    21.47000122   1.69000006  48.97999573
C    22.57999802   1.50999999  48.11000061
C    23.82999802   1.89999998  48.52000427
C    24.14999962   2.47000003  49.79000092
C    23.05999947   2.59999990  50.61999893
C    21.73000145   2.23000002  50.28999710
C    17.63000107   1.49000001  49.31999969
C    16.86000061   1.93000007  50.43000031
C    15.47999954   1.92000008  50.52000046
C    25.53999901   2.98000002  50.05000305
H    26.13783264   2.26829529  50.61936188
H    20.81000137   2.82000017  52.18000031
H    20.03999901   1.26999998  47.50999832
H    22.43999863   1.07000005  47.12999725
H    24.61000061   1.72999990  47.78999710
H    23.09000015   3.10999990  51.58000183
H    14.91000080   2.25999999  51.38000107
H    25.92000008   3.28999996  49.06999969
H    25.43999863   3.86000013  50.68999863
S    14.39000034   1.08000004  46.84000015
C    11.65999985   1.01999998  47.49000168
C    12.94999981   1.31999993  47.85999680
C    13.34000015   1.65999997  49.19000244
C    12.32999992   1.85000002  50.12000275
C    10.98000050   1.58000004  49.78000259
C     9.89000034   1.72999990  50.68999863
C     8.57999992   1.47000003  50.34999847
C     8.30999947   0.94999999  49.06000137
C     9.31999969   0.69999999  48.15000153
C    10.65000057   1.08000004  48.47999954
C    14.78000069   1.61000001  49.34000015
C    15.52999973   1.26999998  48.18999863
C    16.92000008   1.13000000  48.18000031
C     6.86999989   0.59000003  48.81999969
H     6.42880011   1.13794172  47.98741150
H    11.44000053   0.56000000  46.52999878
H    12.43999958   2.24000001  51.12999725
H    10.00000000   2.09000015  51.70999908
H     7.76000023   1.63000000  51.04999924
H     9.09000015   0.41000003  47.12999725
H    17.42000008   0.74000001  47.29999924
H     6.25999975   0.69000000  49.72999954
H     6.90999985  -0.50000000  48.68000031
