96

S    17.82999992   2.19000006  57.70999908
C    20.51000214   2.02999997  57.09999847
C    19.22000122   1.94000006  56.63999939
C    18.86999893   1.49000001  55.31999969
C    19.93999863   1.22000003  54.48999786
C    21.27000046   1.38000000  54.94999695
C    22.37999916   1.08999991  54.09999847
C    23.65999985   1.49000001  54.41999817
C    23.92000008   2.19000006  55.61999893
C    22.92000008   2.39999986  56.55000305
C    21.63000107   1.87000012  56.25000000
C    17.42000008   1.35000002  55.24000168
C    16.72000122   1.82999992  56.37000275
C    15.32999992   1.90999997  56.37000275
C    25.32999992   2.53999996  56.02000427
H    25.63549423   1.96453547  56.89385605
H    20.62999916   2.64999986  57.98999786
H    19.79999924   0.81000000  53.50000000
H    22.17000008   0.62000000  53.13999939
H    24.43000031   1.28000009  53.68999863
H    23.09999847   2.94999981  57.47000122
H    14.88999939   2.31999993  57.28000259
H    25.97999954   2.38999987  55.13999939
H    25.48000145   3.60000014  56.24000168
S    14.26000023  -0.00000000  53.04999924
C    11.51999950   0.12000000  53.59000397
C    12.81000042   0.46999997  53.95000076
C    13.15000057   1.15999997  55.15999603
C    12.10000038   1.43000007  56.03000259
C    10.76000023   1.14999998  55.68000031
C     9.64999962   1.36000013  56.53999710
C     8.36000061   1.00000000  56.24000168
C     8.05000019   0.50999999  54.94999695
C     9.10000038   0.22000000  54.09999847
C    10.46000004   0.41999999  54.47999954
C    14.57999992   1.36999989  55.31999969
C    15.29999924   0.78000003  54.25000000
C    16.69000053   0.74000001  54.20999908
C     6.67999983  -0.05000000  54.65000153
H     6.13275766   0.49724239  53.88243866
H    11.33999920  -0.43000001  52.68000031
H    12.36999989   1.85000002  56.98999786
H     9.92000008   1.77999997  57.50999832
H     7.57999992   0.97000003  57.01000214
H     8.86999989  -0.14999999  53.11000061
H    17.22999954   0.17000002  53.46000290
H     6.05000019  -0.09000000  55.54000092
H     6.88000011  -1.10000002  54.40999985
S    17.87999916   2.19000006  51.81000137
C    20.53999901   2.28999996  51.20999908
C    19.29000092   1.88999999  50.77000046
C    19.00000000   1.57000005  49.40999985
C    20.06000137   1.71000004  48.54000092
C    21.38000107   2.01999998  48.95000076
C    22.40999985   2.03999996  47.95999908
C    23.68000031   2.43000007  48.30999756
C    23.94000053   2.79000020  49.65999985
C    22.95000076   2.80999994  50.61999893
C    21.63999939   2.34999990  50.31999969
C    17.56000137   1.65999997  49.22000122
C    16.82999992   2.03999996  50.38000107
C    15.44999981   2.06999993  50.52999878
C    25.32999992   3.25999999  50.06000137
H    25.84501266   2.44456148  50.56785965
H    20.63999939   2.69000006  52.21000290
H    20.10000038   1.36999989  47.50999832
H    22.25000000   1.85000002  46.90000153
H    24.56000137   2.32999992  47.68000031
H    23.19000053   3.22000003  51.59000015
H    15.05000019   2.24000001  51.52000046
H    25.90999985   3.60000014  49.19000244
H    25.25000000   4.07000017  50.79999924
S    14.42999935   0.52999997  46.97999954
C    11.69000053   0.39999998  47.63999939
C    12.97999954   0.73000002  47.97999954
C    13.30999947   1.31999993  49.25000000
C    12.32999992   1.49000001  50.20999908
C    11.00000000   1.12000000  49.88999939
C     9.92000008   1.26999998  50.79999924
C     8.63000011   0.90000004  50.47000122
C     8.34999943   0.31000000  49.20999908
C     9.31999969   0.28000000  48.22999954
C    10.67000008   0.56000000  48.60000229
C    14.72000027   1.65000010  49.40999985
C    15.43000031   1.22000003  48.26000214
C    16.80999947   1.25999999  48.11000061
C     6.90000010   0.01000000  48.92000198
H     6.42359591   0.57173038  48.11651230
H    11.35000038  -0.00000000  46.69000244
H    12.48999977   1.90999997  51.19999695
H    10.07999992   1.74000001  51.76000214
H     7.85000038   1.14999998  51.18000031
H     9.21000004  -0.09000000  47.21000290
H    17.30999947   0.99000001  47.18000031
H     6.30000019   0.27000001  49.80999756
H     6.77999973  -1.08000004  48.86000061
