96

S    17.67000008   2.16000009  57.62000275
C    20.32999992   1.98000002  57.02000046
C    19.04999924   1.66999996  56.60999680
C    18.65999985   1.33000004  55.27999878
C    19.69000053   1.12000000  54.38000107
C    21.02999878   1.33000004  54.79000092
C    22.07999992   0.99000001  53.88999939
C    23.38999939   1.22000003  54.23999786
C    23.67000198   1.88999999  55.45000076
C    22.70999908   2.25000000  56.37000275
C    21.38999939   1.80999994  56.10000229
C    17.20999908   1.28999996  55.20000076
C    16.51000023   1.77999997  56.32999802
C    15.13000011   1.87000012  56.40999603
C    25.10999870   2.28999996  55.65999985
H    25.53542900   1.60931349  56.39741135
H    20.48000145   2.44000006  57.98999786
H    19.47000122   0.69999999  53.40000153
H    21.84000015   0.62000000  52.90000153
H    24.14999962   1.00999999  53.47999954
H    22.92000008   2.82999992  57.27000427
H    14.70000076   2.37000012  57.27000427
H    25.53999901   2.38999987  54.65999985
H    25.07999802   3.31999993  56.02000427
S    13.94999981   0.37000000  52.84999847
C    11.25000000   0.65999997  53.40000153
C    12.53999901   0.88999999  53.79000092
C    12.94999981   1.43000007  55.06000137
C    11.90000057   1.66999996  55.93000031
C    10.52999973   1.43000007  55.65999985
C     9.44999981   1.56000006  56.59000015
C     8.17000008   1.24000001  56.23000336
C     7.88000011   0.78000003  54.91000366
C     8.88000011   0.71000004  53.96999741
C    10.22999954   0.97999996  54.33000183
C    14.37999916   1.39999998  55.31999969
C    15.03000069   0.82000005  54.19000244
C    16.40999985   0.75000000  54.18000031
C     6.46000004   0.34999999  54.62999725
H     5.98286247   0.72743726  53.72557449
H    11.11999989   0.02000000  52.52999878
H    12.18000031   2.00999999  56.91999817
H     9.71000004   1.59999990  57.63999939
H     7.40000010   1.10000002  56.98999786
H     8.71000004   0.32000002  52.97000122
H    16.87000084   0.29999998  53.29999924
H     5.86999989   0.78000003  55.44000244
H     6.30999994  -0.73000002  54.72999954
S    14.63000107  -1.50999999  49.99000168
C    11.96000004  -1.85000002  50.73999786
C    13.27999973  -2.19000006  50.91999817
C    13.76999950  -2.87999988  52.08000183
C    12.82999992  -3.47000003  52.90999985
C    11.46000004  -3.23000002  52.65999603
C    10.50000000  -3.81000018  53.54000092
C     9.15999985  -3.52999973  53.40999985
C     8.69000053  -2.73000002  52.34000397
C     9.57999992  -2.16000009  51.45000076
C    10.98000050  -2.34999990  51.63000107
C    15.21000004  -2.76999998  52.23999786
C    15.81999969  -1.99000001  51.23000336
C    17.13999939  -1.57000005  51.19999695
C     7.20000029  -2.59999990  52.06999969
H     6.83111477  -3.01854277  51.13359833
H    11.78999996  -1.23000002  49.86999893
H    13.21000004  -4.13000011  53.68000031
H    10.73999977  -4.59999990  54.23999786
H     8.51000023  -4.02999973  54.12000275
H     9.30000019  -1.56000006  50.59000015
H    17.53000069  -1.05999994  50.31999969
H     6.65999985  -3.02999997  52.91999817
H     6.91999960  -1.53999996  52.09999847
S    18.63000107  -3.30000019  54.47999954
C    21.25999832  -2.66000009  53.75999832
C    19.92000008  -2.61000013  53.47999954
C    19.37000084  -1.99000001  52.30999756
C    20.25000000  -1.50999999  51.35000229
C    21.63999939  -1.58000004  51.56999969
C    22.53999901  -0.97000003  50.65000153
C    23.85999870  -0.82000005  51.02000427
C    24.36000061  -1.25000000  52.28000259
C    23.52999878  -1.92000008  53.13999939
C    22.14999962  -2.09000015  52.81000137
C    17.92000008  -2.09000015  52.23999786
C    17.35999870  -2.77999997  53.34999847
C    16.03000069  -3.16000009  53.30999756
C    25.82999992  -1.00999999  52.56000137
H    26.05750847  -1.68541384  53.38471603
H    21.63000107  -3.00999999  54.72000122
H    19.88999939  -1.08000004  50.41999817
H    22.17000008  -0.68000007  49.66999817
H    24.46000099  -0.44000000  50.20000076
H    23.82999802  -2.36000013  54.09000015
H    15.62999916  -3.81999993  54.06999969
H    26.01000023   0.04000000  52.84000015
H    26.24000168  -1.14999998  51.55000305
