96

S    17.67000008   1.62000000  57.56000137
C    20.36000061   1.93000007  56.72000122
C    19.07999992   1.50999999  56.49000168
C    18.68999863   0.99000001  55.21999741
C    19.70000076   0.69999999  54.31999969
C    21.07000160   0.96000004  54.59000015
C    22.14999962   0.78000003  53.68999863
C    23.43000031   1.21000004  53.92000198
C    23.74000168   1.87000012  55.13999939
C    22.73999977   2.11999989  56.04999924
C    21.40000153   1.69000006  55.79000092
C    17.25000000   0.82999998  55.06999969
C    16.55999947   1.25999999  56.23000336
C    15.17000008   1.29999995  56.24000168
C    25.17999840   2.16999984  55.48999786
H    25.58635521   1.51412749  56.25993729
H    20.69000053   2.31999993  57.68000031
H    19.45000076   0.37000000  53.30999756
H    21.84000015   0.38000000  52.71999741
H    24.20999908   1.04999995  53.18000031
H    22.85000038   2.79000020  56.88999939
H    14.63000107   1.65999997  57.11000061
H    25.76999855   2.06999993  54.56999969
H    25.32999992   3.23000002  55.73999786
S    14.07999992  -0.05000000  52.67000198
C    11.36000061   0.19000000  53.20999908
C    12.65999985   0.39999998  53.62999725
C    13.03999996   0.92000002  54.91000366
C    12.02000046   1.26999998  55.77999878
C    10.69000053   0.93000001  55.45999908
C     9.67000008   0.99000001  56.45999908
C     8.38999939   0.57999998  56.20999908
C     8.02999973   0.19000000  54.88999939
C     8.97000027   0.16000001  53.88999939
C    10.32999992   0.50000000  54.13000107
C    14.47999954   0.90000004  55.07999802
C    15.19999981   0.46999997  53.94000244
C    16.59000015   0.41999999  53.89999771
C     6.61999989  -0.20999999  54.52000046
H     6.16427565   0.43086249  53.76520920
H    10.98000050  -0.32999998  52.34000397
H    12.27000046   1.49000001  56.81999969
H     9.94000053   1.41000009  57.43000031
H     7.59000015   0.74000001  56.93000031
H     8.61999989  -0.22000000  52.93000031
H    17.17000008   0.09000000  53.04000092
H     6.02999973  -0.22000000  55.44000244
H     6.77999973  -1.26999998  54.27000046
S    14.63000107  -1.79000008  49.69999695
C    11.97999954  -2.37000012  50.38999939
C    13.31999969  -2.48000002  50.68000031
C    13.73000050  -3.15000010  51.88000107
C    12.77999973  -3.58000016  52.78999710
C    11.39000034  -3.44000006  52.55000305
C    10.31999969  -3.82999992  53.40000153
C     8.98999977  -3.63999987  53.11999893
C     8.64000034  -3.03999996  51.88000107
C     9.61999989  -2.75999999  50.96000290
C    11.00000000  -2.86000013  51.29000092
C    15.14999962  -2.89000010  52.09000015
C    15.76000023  -2.20000005  51.00999832
C    17.07999992  -1.77999997  51.00000000
C     7.21000004  -2.68000007  51.56999969
H     6.83209515  -3.07929564  50.62880325
H    11.61000061  -1.84000003  49.52000046
H    13.12999916  -3.98000002  53.74000168
H    10.51000023  -4.39000034  54.31000137
H     8.23000050  -4.03999996  53.79000092
H     9.44000053  -2.21000004  50.04000092
H    17.50000000  -1.39999998  50.07999802
H     6.60000038  -2.94000006  52.44999695
H     7.26999998  -1.58000004  51.59000015
S    18.44000053  -3.30000019  54.47999954
C    21.14999962  -2.75000000  53.75999832
C    19.79999924  -2.77999997  53.47000122
C    19.30999947  -2.25000000  52.22999954
C    20.23999977  -1.87999988  51.27999878
C    21.63999939  -1.89999998  51.49000168
C    22.52000046  -1.28000009  50.56000137
C    23.85000038  -1.19000006  50.91999817
C    24.30999947  -1.77999997  52.12999725
C    23.47999954  -2.37000012  53.04999924
C    22.09000015  -2.43000007  52.75000000
C    17.86000061  -2.21000004  52.08000183
C    17.28999901  -2.84999990  53.20999908
C    15.93000031  -3.17000008  53.20999908
C    25.73999786  -1.47000003  52.49000168
H    26.08125496  -2.04586816  53.35024643
H    21.44000053  -3.05999994  54.75999832
H    19.84000015  -1.53999996  50.31999969
H    22.03000069  -0.78000003  49.72999954
H    24.46000099  -0.48000002  50.37000275
H    23.81000137  -2.57999992  54.06999969
H    15.52000046  -3.68999982  54.06999969
H    25.94000053  -0.41999999  52.74000168
H    26.19999886  -1.70000005  51.52999878
