96

S    17.65999985   2.17999983  57.63999939
C    20.43000031   2.22000003  57.01000214
C    19.12999916   1.89999998  56.69000244
C    18.73999977   1.38999999  55.40999985
C    19.73999977   1.12000000  54.48999786
C    21.09999847   1.36999989  54.78000259
C    22.15999985   1.26999998  53.82999802
C    23.43000031   1.70000005  54.10999680
C    23.75999832   2.09000015  55.44000244
C    22.80999947   2.13000011  56.43000031
C    21.45000076   1.94999993  56.05999756
C    17.29999924   1.31999993  55.20999908
C    16.55999947   1.84000003  56.30000305
C    15.17000008   1.84000003  56.37000275
C    25.22000122   2.44000006  55.61999893
H    25.81055069   1.81387401  56.28881836
H    20.62999916   2.75000000  57.93000031
H    19.56999969   0.81000000  53.46000290
H    21.96000099   0.92000002  52.81999969
H    24.13999939   1.59999990  53.29999924
H    23.13999939   2.42000008  57.43000031
H    14.60000038   1.97000003  57.29000092
H    25.66999817   2.25000000  54.64000320
H    25.43000031   3.51000023  55.75000000
S    14.07999992   0.39999998  52.87000275
C    11.35000038   0.39000002  53.66000366
C    12.64999962   0.82000005  53.83999634
C    13.00000000   1.38000000  55.11000061
C    12.02000046   1.63000000  56.04999924
C    10.67000008   1.28000009  55.84999847
C     9.67000008   1.33000004  56.86000061
C     8.38999939   0.97000003  56.51000214
C     8.02999973   0.50999999  55.20999908
C     9.00000000   0.32999998  54.26000214
C    10.31999969   0.76999998  54.54999924
C    14.45000076   1.47000003  55.21999741
C    15.19999981   0.94999999  54.13000107
C    16.59000015   0.85000002  54.09999847
C     6.61000013   0.06000000  54.95999908
H     6.03239775   0.78735065  54.38953018
H    11.17000008  -0.28000000  52.81999969
H    12.41000080   1.77999997  57.04999924
H     9.98999977   1.44999993  57.88999939
H     7.67000008   1.11000001  57.30999756
H     8.73999977  -0.24000001  53.36999893
H    17.05999947   0.46000001  53.20999908
H     6.06999969   0.02000000  55.91999817
H     6.58999968  -0.92000002  54.45999908
S    17.97000122   2.61000013  51.84999847
C    20.65000153   2.69000006  51.00999832
C    19.36000061   2.26999998  50.79999924
C    19.01000023   1.63000000  49.56999969
C    19.97999954   1.43000007  48.60000229
C    21.31000137   1.87999988  48.80000305
C    22.34999847   1.75999999  47.84000015
C    23.59999847   2.29999995  48.06999969
C    23.95000076   2.86000013  49.33000183
C    22.98000145   3.00000000  50.28999710
C    21.64999962   2.56999993  50.00999832
C    17.56000137   1.62000000  49.38999939
C    16.87999916   2.11999989  50.52999878
C    15.48999977   2.13000011  50.59999847
C    25.36999893   3.25999999  49.65999985
H    25.88034248   2.60789585  50.36880875
H    20.79000092   3.30000019  51.88999939
H    19.65999985   0.97999996  47.67000198
H    22.06000137   1.16999996  46.97000122
H    24.34999847   2.28999996  47.29000092
H    23.15000153   3.33999991  51.31000137
H    14.88000011   2.50999975  51.40999603
H    25.97999954   3.31999993  48.75000000
H    25.34000015   4.26999998  50.07999802
S    14.28999996   0.83999997  47.06999969
C    11.56999969   0.76999998  47.84000015
C    12.88000011   1.12000000  48.11000061
C    13.25000000   1.69000006  49.36000061
C    12.23999977   1.98000002  50.27000046
C    10.95999908   1.39999998  50.08999634
C     9.89999962   1.61000001  51.02000427
C     8.60000038   1.33000004  50.68000031
C     8.19999981   0.75999999  49.43999863
C     9.21000004   0.48000002  48.55999756
C    10.53999996   0.90999997  48.81000137
C    14.70000076   1.72000003  49.52999878
C    15.40999985   1.28999996  48.37999725
C    16.79000092   1.21000004  48.29000092
C     6.76000023   0.29999998  49.34000015
H     6.33892584   0.74962175  48.44075775
H    11.28999901   0.43000001  46.84999847
H    12.43999958   2.34999990  51.26999664
H    10.21000004   2.04999995  51.97000122
H     7.77999973   1.58999991  51.35000229
H     9.00000000   0.17000002  47.52999878
H    17.23999977   0.73000002  47.43000031
H     6.26999950   0.67000002  50.25000000
H     6.67999983  -0.79999995  49.38000107
