96

S    17.73999977   2.25999999  57.50999832
C    20.50000000   1.97000003  56.91999817
C    19.18000031   1.93000007  56.52999878
C    18.77000046   1.51999998  55.21999741
C    19.78000069   1.33000004  54.29000092
C    21.14999962   1.50999999  54.61999893
C    22.13000107   1.71000004  53.61000061
C    23.45999908   1.88999999  53.90999603
C    23.81000137   2.27999997  55.22999573
C    22.85000038   2.29999995  56.23000336
C    21.53000069   1.85000002  55.96000290
C    17.34000015   1.41000009  55.00999832
C    16.65999985   1.77999997  56.18999863
C    15.27999973   1.97000003  56.24000168
C    25.23999977   2.64999986  55.54000092
H    25.66697693   1.98106909  56.28720856
H    20.69000053   2.16000009  57.97999954
H    19.44000053   1.13999999  53.27999878
H    21.87000084   1.59999990  52.56000137
H    24.23000145   1.85000002  53.15000153
H    22.95000076   2.66000009  57.25000000
H    14.80000019   2.30999994  57.15000153
H    25.79999924   2.59999990  54.59999847
H    25.17000008   3.72000003  55.76000214
S    14.09999943   0.71000004  52.69000244
C    11.39000034   0.57999998  53.36999893
C    12.68000031   0.90999997  53.74000168
C    13.02000046   1.35000002  55.06000137
C    12.00000000   1.43999994  55.98999786
C    10.67999935   1.07000005  55.63999939
C     9.67000008   1.22000003  56.63999939
C     8.36999989   0.90000004  56.31000137
C     8.05000019   0.41000003  55.01999664
C     9.01000023   0.19000000  54.05000305
C    10.34999943   0.57999998  54.33000183
C    14.45000076   1.58999991  55.18000031
C    15.17000008   1.19000006  54.02999878
C    16.54999924   1.01999998  53.90999603
C     6.61999989   0.08000001  54.65999985
H     6.13794756   0.69674325  53.90147781
H    11.00999928   0.44000000  52.36000061
H    12.23999977   1.67999995  57.02000046
H     9.94000053   1.84000003  57.48000336
H     7.48000050   1.13000000  56.88999939
H     8.69999981  -0.17000002  53.06999969
H    17.05999947   0.50999999  53.09999847
H     6.03999996   0.02000000  55.58000183
H     6.53999996  -0.94999999  54.29000092
S    14.34000015  -1.47000003  49.75000000
C    11.67000008  -1.87000012  50.35999680
C    12.97999954  -2.01999998  50.73999786
C    13.43000031  -2.25999999  52.08000183
C    12.43000031  -2.77999997  52.88999939
C    11.05999947  -2.66000009  52.57999802
C    10.07999992  -3.28000021  53.41999817
C     8.76999950  -3.15000010  53.04000092
C     8.38999939  -2.49000001  51.84999847
C     9.28999996  -1.99000001  50.93000031
C    10.65999985  -2.07999992  51.32999802
C    14.86999989  -2.19000006  52.27000427
C    15.47999954  -1.71000004  51.07999802
C    16.84999847  -1.47000003  51.06999969
C     6.94000006  -2.15000010  51.56000137
H     6.49975634  -2.73225760  50.75051880
H    11.33999920  -1.53999996  49.36999893
H    12.74000072  -3.42000008  53.70999908
H    10.36000061  -3.93000007  54.23999786
H     8.01999950  -3.54999995  53.73000336
H     9.06999969  -1.72000003  49.91000366
H    17.38000107  -0.97000003  50.26000214
H     6.48999977  -2.44000006  52.50999832
H     6.67999983  -1.08999991  51.56999969
S    18.15000153  -2.79999995  54.64000320
C    20.84000015  -2.48000002  53.82999802
C    19.50000000  -2.20000005  53.66000366
C    18.98999977  -1.66999996  52.43999863
C    19.86999893  -1.14999998  51.51000214
C    21.25999832  -1.19000006  51.79999924
C    22.20999908  -0.71000004  50.86000061
C    23.54999924  -0.97999996  51.00000000
C    24.03000069  -1.77999997  52.06999969
C    23.15999985  -2.22000003  53.04000092
C    21.77999878  -1.92000008  52.93000031
C    17.56000137  -1.85000002  52.22000122
C    16.95999908  -2.38999987  53.37999725
C    15.59999943  -2.69000006  53.34999847
C    25.51000214  -2.02999997  52.23999786
H    25.87288475  -1.56750166  53.15788269
H    21.28999901  -3.03999996  54.65000153
H    19.50000000  -1.03999996  50.50000000
H    21.87000084  -0.17999999  49.97000122
H    24.21999931  -0.38000000  50.38999939
H    23.48999977  -2.75999999  53.93000031
H    15.08999920  -3.32999992  54.06999969
H    26.00000000  -1.63000000  51.35000229
H    25.71000099  -3.09999990  52.30999756
