96

S    17.53000069   2.31999993  57.74000168
C    20.30999947   2.25000000  57.16999817
C    19.01000023   1.94000006  56.84000015
C    18.70000076   1.44999993  55.52999878
C    19.59000015   1.36999989  54.47999954
C    20.92000008   1.70000005  54.82999802
C    21.90000153   1.62000000  53.81000137
C    23.16999817   2.03999996  54.13000107
C    23.59999847   2.45000005  55.41999817
C    22.63999939   2.50000000  56.40999603
C    21.28999901   2.10999990  56.16000366
C    17.28000069   1.19000006  55.34000015
C    16.51000023   1.65000010  56.45000076
C    15.11999989   1.65999997  56.47999573
C    25.05000114   2.82999992  55.63000107
H    25.56451416   2.17970991  56.33745956
H    20.63999939   2.61999989  58.13999939
H    19.34000015   1.21000004  53.43000031
H    21.68999863   1.03999996  52.90999985
H    23.88999939   1.93000007  53.31999969
H    22.88000107   2.94999981  57.36000061
H    14.61999989   2.13000011  57.31999969
H    25.52999878   2.89999986  54.65000153
H    24.89999962   3.84999990  56.00999832
S    14.04999924   0.25999999  52.95000076
C    11.35000038   0.28000000  53.62999725
C    12.63000011   0.71000004  53.92000198
C    12.98999977   1.22000003  55.20000076
C    11.97999954   1.39999998  56.12999725
C    10.64000034   1.08999991  55.79999924
C     9.59000015   1.41000009  56.70999908
C     8.30000019   1.12000000  56.35000229
C     7.99000025   0.37000000  55.18000031
C     8.94999981   0.09000000  54.25000000
C    10.29000092   0.48999998  54.54000092
C    14.44000053   1.24000001  55.33000183
C    15.18000031   0.69999999  54.23999786
C    16.56999969   0.71999997  54.22999954
C     6.57999992  -0.13000000  54.99000168
H     6.04145288   0.51483929  54.29555893
H    11.14999962  -0.12000000  52.63999939
H    12.25999928   1.75999999  57.11999893
H     9.80000019   1.85000002  57.68000031
H     7.60999966   1.54999995  57.06999969
H     8.73000050  -0.44000000  53.31999969
H    17.05999947   0.34999999  53.33000183
H     6.11999989  -0.17999999  55.98999786
H     6.58999968  -1.13999999  54.56999969
S    17.70000076   2.63999987  51.91999817
C    20.38999939   3.00999999  51.14999771
C    19.13999939   2.50999975  50.89000320
C    18.79999924   1.86000001  49.65999985
C    19.76000023   1.74000001  48.68000031
C    21.09999847   2.09999990  48.97999573
C    22.17000008   1.80999994  48.09000015
C    23.46999931   2.19000006  48.31999969
C    23.81999969   2.59000015  49.64000320
C    22.81999969   2.89999986  50.52999878
C    21.44000053   2.70000005  50.24000168
C    17.36999893   1.67999995  49.47000122
C    16.63999939   2.13000011  50.59999847
C    15.25000000   2.19000006  50.66999817
C    25.23999977   3.02999997  49.91000366
H    25.70846939   2.35568810  50.62689972
H    20.81000137   3.42999983  52.05999756
H    19.56999969   1.25999999  47.71999741
H    21.97000122   1.18000007  47.22000122
H    24.20000076   2.24000001  47.51999664
H    23.01000214   3.45999980  51.44000244
H    14.78999996   2.46000004  51.60999680
H    25.76999855   3.07999992  48.95000076
H    25.35000038   4.02999973  50.35999680
S    14.21000004   0.99000001  47.01000214
C    11.54999924   0.79000002  47.75000000
C    12.79999924   1.28999996  48.04999924
C    13.09999943   1.80999994  49.34999847
C    12.10000038   1.86000001  50.30000305
C    10.77999973   1.49000001  49.95999908
C     9.73999977   1.46000004  50.93000031
C     8.47000027   1.28999996  50.41999817
C     8.17000008   0.68000007  49.18000031
C     9.17000008   0.52999997  48.25000000
C    10.47999954   0.92000002  48.67000198
C    14.53999996   1.76999998  49.54000092
C    15.26000023   1.38999999  48.37999725
C    16.63999939   1.23000002  48.36000061
C     6.74000025   0.25000000  48.89999771
H     6.17006493   0.98379093  48.33006287
H    11.50000000   0.17999999  46.84999847
H    12.41000080   2.11999989  51.31000137
H     9.86999989   1.62000000  51.98999786
H     7.65999985   1.49000001  51.11999893
H     9.04999924   0.16000001  47.23999786
H    17.13000107   0.86000001  47.47000122
H     6.30999994   0.11000000  49.89999771
H     6.83000040  -0.74000001  48.44999695
