96

S    17.29999924   2.09999990  57.75000000
C    19.96999931   2.36000013  57.12999725
C    18.75000000   1.84000003  56.77000046
C    18.40999985   1.19000006  55.54000092
C    19.44000053   1.11000001  54.61999893
C    20.73999786   1.58999991  54.89999771
C    21.80999947   1.43000007  53.97999573
C    23.08000183   1.92000008  54.20999908
C    23.32999992   2.59000015  55.44000244
C    22.32999992   2.69000006  56.38000107
C    20.98999977   2.25999999  56.14999771
C    16.97000122   1.04999995  55.38000107
C    16.21000099   1.46000004  56.51000214
C    14.82999992   1.56000006  56.62000275
C    24.72999954   2.96000004  55.87999725
H    25.14359856   2.24689698  56.59310150
H    20.29000092   2.59000015  58.13999939
H    19.13999939   0.79999995  53.61999893
H    21.65999985   1.03999996  52.97999954
H    23.78999901   1.63000000  53.44999695
H    22.53000069   3.07999992  57.36999893
H    14.40999985   1.75000000  57.60000229
H    25.46999931   2.89000010  55.06999969
H    24.84999847   4.00000000  56.19999695
S    13.69999981   0.16000001  53.13000107
C    11.00999928  -0.04000000  53.83999634
C    12.27000046   0.41000003  54.15000153
C    12.61999989   0.99000001  55.40999985
C    11.59000015   1.26999998  56.29000092
C    10.25000000   0.90999997  56.00999832
C     9.19999981   1.03999996  56.95999908
C     7.94000053   0.51999998  56.79999924
C     7.64999962   0.01000000  55.50000000
C     8.60000038  -0.03000000  54.51000214
C     9.96999931   0.27000001  54.75000000
C    14.06000042   1.14999998  55.52000046
C    14.80000019   0.79000002  54.36999893
C    16.18999863   0.79999995  54.25000000
C     6.21000004  -0.19999999  55.06999969
H     5.83249950   0.24872750  54.15117645
H    10.72999954  -0.54000002  52.91999817
H    11.85999966   1.58999991  57.29000092
H     9.55000019   1.50999999  57.88000107
H     7.20000029   0.50999999  57.60000229
H     8.39999962  -0.34999999  53.48999786
H    16.57999992   0.51999998  53.27000046
H     5.51999998   0.12000000  55.84999847
H     6.00000000  -1.26999998  54.97000122
S    14.26000023  -1.56000006  50.26000214
C    11.64000034  -2.38000011  50.90000153
C    13.00000000  -2.47000003  51.11999893
C    13.50999928  -3.14000010  52.28000259
C    12.68000031  -3.63000011  53.27000046
C    11.30000019  -3.42000008  53.04000092
C    10.36000061  -3.76999998  54.05000305
C     8.98999977  -3.65999985  53.89999771
C     8.45000076  -3.26999998  52.64999771
C     9.30999947  -2.96000004  51.62000275
C    10.71000004  -2.89000010  51.84000015
C    14.93000031  -2.86999989  52.47000122
C    15.48999977  -2.09000015  51.43000031
C    16.80999947  -1.65000010  51.38000107
C     6.96000004  -3.05999994  52.51999664
H     6.56226635  -3.56426883  51.63930130
H    11.19999981  -1.82999992  50.06999969
H    13.01000023  -4.07000017  54.20000076
H    10.72000027  -4.18000031  54.99000168
H     8.31999969  -4.07999992  54.64000320
H     8.94999981  -2.48000002  50.70999908
H    17.25000000  -1.00000000  50.63000107
H     6.50000000  -3.35999990  53.47000122
H     6.83000040  -1.98000002  52.36000061
S    18.29000092  -3.15000010  54.79000092
C    20.92000008  -2.53999996  54.06999969
C    19.57999992  -2.48000002  53.75999832
C    19.09000015  -1.82999992  52.57999802
C    20.00999832  -1.26999998  51.72000122
C    21.40000153  -1.35000002  51.97000122
C    22.34000015  -0.83999997  51.02000427
C    23.67000198  -0.71999997  51.36000061
C    24.14999962  -1.28999996  52.56999969
C    23.26000023  -1.85000002  53.43999863
C    21.86000061  -1.93000007  53.20000076
C    17.65999985  -2.04999995  52.42000198
C    17.11000061  -2.73999977  53.53000259
C    15.77999973  -3.14000010  53.54999924
C    25.59000015  -0.97999996  52.90000153
H    25.98715973  -1.55446339  53.73687363
H    21.35000038  -3.14000010  54.86999893
H    19.65999985  -0.81000000  50.79999924
H    21.94000053  -0.25999999  50.20000076
H    24.40999985  -0.32000002  50.65999985
H    23.64999962  -2.17999983  54.40000153
H    15.36000061  -3.74000025  54.34999847
H    25.71000099   0.09000000  53.13999939
H    26.28000069  -1.11000001  52.04999924
