96

S    17.40999985   1.82999992  57.84999847
C    20.07999802   1.88999999  57.11000061
C    18.78000069   1.58000004  56.76000214
C    18.46999931   1.08000004  55.45999908
C    19.52999878   0.93999994  54.58000183
C    20.86999893   1.29999995  54.89999771
C    21.88999939   1.05999994  53.93000031
C    23.18000031   1.36999989  54.29000092
C    23.50000000   1.90999997  55.56000137
C    22.53999901   2.00000000  56.53999710
C    21.18999863   1.69000006  56.24000168
C    17.02000046   1.01999998  55.34000015
C    16.32999992   1.46000004  56.50000000
C    14.93999958   1.41000009  56.55000305
C    24.92000198   2.42000008  55.72999954
H    25.41202164   1.83527946  56.50725174
H    20.20000076   2.07999992  58.16999817
H    19.31999969   0.56000000  53.59000397
H    21.60000038   0.64999998  52.97000122
H    23.87000084   1.31999993  53.46000290
H    22.79999924   2.45000005  57.50000000
H    14.47000027   1.65000010  57.50000000
H    25.50000000   2.39999986  54.79999924
H    24.79999924   3.48000002  56.00999832
S    13.88000011   0.39999998  52.84000015
C    11.23000050   0.08000001  53.44999695
C    12.44999981   0.55000001  53.88000107
C    12.79999924   0.94999999  55.20999908
C    11.82000065   0.97999996  56.18000031
C    10.52000046   0.57999998  55.77999878
C     9.43000031   0.62000000  56.69000244
C     8.17000008   0.17000002  56.38000107
C     7.92000008  -0.39000002  55.10000229
C     8.96000004  -0.50999999  54.20999908
C    10.25000000   0.03000000  54.47999954
C    14.23999977   1.14999998  55.37000275
C    14.94999981   0.83999997  54.19000244
C    16.31999969   0.59999996  54.20000076
C     6.58999968  -0.96000004  54.65999985
H     5.98284674  -0.28856009  54.05284882
H    11.02000046  -0.28000000  52.44999695
H    11.97999954   1.28000009  57.21000290
H     9.63000011   1.08999991  57.64999771
H     7.26000023   0.52999997  56.84999847
H     8.88000011  -0.97999996  53.22999954
H    16.87999916   0.11000000  53.40999985
H     5.98999977  -1.33000004  55.51000214
H     6.71999979  -1.87999988  54.08000183
S    13.92000008  -1.67999995  50.10000229
C    11.19999981  -2.27999997  50.72000122
C    12.53999901  -2.33999991  51.00999832
C    13.07999992  -3.02999997  52.14000320
C    12.15999985  -3.42000008  53.09999847
C    10.77000046  -3.40999985  52.84000015
C     9.86999989  -3.89999986  53.82999802
C     8.53999996  -4.09999990  53.53000259
C     8.05000019  -3.75000000  52.25000000
C     8.88000011  -3.09999990  51.37000275
C    10.26999950  -2.87999988  51.59999847
C    14.52000046  -2.96999979  52.30999756
C    15.14000034  -2.30999994  51.22000122
C    16.48999977  -1.99000001  51.22000122
C     6.57999992  -3.95000005  51.93000031
H     6.19665909  -3.41048360  51.06393433
H    10.82999992  -1.65999997  49.91000366
H    12.44999981  -4.01999998  53.95000076
H    10.40999985  -4.38000011  54.64000320
H     8.05000019  -4.75000000  54.25000000
H     8.52000046  -2.76999998  50.40000153
H    16.86000061  -1.31999993  50.44000244
H     6.40999985  -5.03000021  51.93000031
H     5.97000027  -3.65000010  52.78999710
S    17.75000000  -3.51999998  54.71000290
C    20.43000031  -2.86999989  54.08000183
C    19.07999992  -2.77999997  53.81000137
C    18.63000107  -2.16000009  52.60000229
C    19.48999977  -1.65999997  51.63999939
C    20.88000107  -1.72000003  51.88999939
C    21.83000183  -1.01999998  51.07999802
C    23.15999985  -0.93999994  51.40999603
C    23.57000160  -1.66999996  52.55000305
C    22.70999908  -2.30999994  53.41999817
C    21.31000137  -2.27999997  53.13999939
C    17.20999908  -2.38999987  52.35000229
C    16.60000038  -3.08999991  53.41999817
C    15.26999950  -3.50000000  53.36999893
C    25.03999901  -1.98000002  52.71999741
H    25.41045570  -1.66653645  53.69601059
H    20.86000061  -3.31999993  54.97000122
H    19.07999992  -1.22000003  50.73999786
H    21.38000107  -0.63000000  50.17000198
H    23.92999840  -0.48000002  50.79999924
H    23.16999817  -2.92000008  54.18000031
H    14.78000069  -4.05000019  54.15999985
H    25.61000061  -1.38000000  52.01000214
H    25.05000114  -3.03999996  52.43999863
