96

S    17.40999985   1.86000001  57.67000198
C    20.05000114   1.75999999  57.05999756
C    18.78000069   1.44999993  56.62000275
C    18.39999962   1.14999998  55.27999878
C    19.42000008   1.13000000  54.34000015
C    20.75000000   1.35000002  54.75999832
C    21.78999901   1.30999994  53.79000092
C    23.08000183   1.67999995  54.09999847
C    23.35000038   2.14000010  55.41999817
C    22.42000198   2.13000011  56.43000031
C    21.09000015   1.75999999  56.10000229
C    16.95000076   1.08000004  55.17000198
C    16.28000069   1.42000008  56.37000275
C    14.88999939   1.52999997  56.49000168
C    24.79000092   2.43000007  55.76000214
H    25.09537125   1.87607384  56.64770508
H    20.12000084   2.13000011  58.08000183
H    19.22999954   0.90999997  53.29000092
H    21.50000000   1.19999993  52.75000000
H    23.82999802   1.63000000  53.31999969
H    22.69000053   2.30999994  57.47000122
H    14.27999973   2.01999998  57.22999954
H    25.55999947   2.26999998  54.99000168
H    24.82000160   3.50000000  56.02000427
S    13.71999931   0.39999998  52.84999847
C    11.14999962  -0.19999999  53.68000031
C    12.35999966   0.39000002  53.99000168
C    12.63000011   1.00000000  55.25000000
C    11.54999924   1.22000003  56.09000397
C    10.21999931   0.83999997  55.79000092
C     9.06999969   1.29999995  56.47999573
C     7.82000017   1.02999997  55.97999954
C     7.64999962   0.19999999  54.84000397
C     8.76999950  -0.25000000  54.18000031
C    10.08999920   0.07000000  54.58000183
C    14.06999969   1.21000004  55.40999985
C    14.75999928   0.83999997  54.22000122
C    16.13999939   0.75000000  54.08000183
C     6.23000050  -0.11000000  54.40999985
H     5.87558031   0.52086741  53.59483719
H    10.95999908  -0.76999998  52.77000046
H    11.84000015   1.57000005  57.06999969
H     9.30999947   1.92000008  57.34000397
H     6.91999960   1.47000003  56.38999939
H     8.56999969  -0.71999997  53.22000122
H    16.46999931   0.43000001  53.09999847
H     5.52999973   0.02000000  55.25000000
H     6.23000050  -1.16999996  54.13000107
S    17.52000046   2.48000002  51.49000168
C    20.17000008   2.64999986  50.90999985
C    18.93000031   2.28999996  50.44000244
C    18.64999962   1.69000006  49.16999817
C    19.69000053   1.62000000  48.26000214
C    20.97999954   2.05999994  48.64999771
C    22.10000038   1.82999992  47.80000305
C    23.38999939   2.16000009  48.13000107
C    23.61000061   2.75000000  49.40000153
C    22.60000038   2.79000020  50.33000183
C    21.24000168   2.52999997  49.99000168
C    17.20999908   1.54999995  48.99000168
C    16.48999977   1.93000007  50.15999603
C    15.11999989   2.09000015  50.25000000
C    25.00000000   3.19999981  49.79000092
H    25.61915588   2.43139219  50.25259018
H    20.30999947   2.91000009  51.95999908
H    19.55999947   1.14999998  47.29000092
H    21.68000031   1.53999996  46.84000015
H    24.18999863   1.87999988  47.43999863
H    22.73999977   3.05000019  51.38000107
H    14.68999958   2.54999995  51.13999939
H    25.48000145   3.65000010  48.90999603
H    24.79999924   4.02999973  50.47000122
S    13.94999981   0.76999998  46.66999817
C    11.35000038   0.48999998  47.56000137
C    12.58999920   1.01999998  47.77999878
C    12.97000027   1.57000005  49.05000305
C    12.01000023   1.70000005  50.04000092
C    10.67999935   1.30999994  49.75999832
C     9.63000011   1.62000000  50.66999817
C     8.31999969   1.31999993  50.35999680
C     7.92999983   0.57999998  49.22000122
C     8.93000031   0.41000003  48.29000092
C    10.31000042   0.71000004  48.50000000
C    14.40999985   1.75000000  49.09000015
C    15.07999992   1.29999995  47.91999817
C    16.46999931   1.21000004  47.84999847
C     6.48000002   0.41000003  48.81999969
H     6.13014507   0.95263207  47.94179153
H    11.10000038  -0.08000001  46.65999985
H    12.25999928   2.07999992  51.02000427
H     9.98000050   2.13000011  51.56000137
H     7.53999996   1.70000005  51.03000259
H     8.71999931   0.00000000  47.30999756
H    16.98999977   0.86000001  46.97000122
H     5.93999958   0.56999999  49.75999832
H     6.39999962  -0.64000005  48.52000427
