96

S    17.45000076   1.59999990  57.93000031
C    20.17999840   1.77999997  57.19999695
C    18.89000130   1.41000009  56.90000153
C    18.53000069   1.00999999  55.56999969
C    19.56999969   0.88999999  54.68000031
C    20.90999985   1.28000009  54.88999939
C    21.91999817   1.25000000  53.88000107
C    23.18000031   1.70000005  54.18000031
C    23.47999954   2.16999984  55.47999954
C    22.50999832   2.23000002  56.45999908
C    21.21000099   1.71000004  56.23000336
C    17.09000015   1.00999999  55.35999680
C    16.38000107   1.36000013  56.53999710
C    15.00000000   1.53999996  56.56000137
C    24.86999893   2.63999987  55.84000015
H    25.32298851   1.96052015  56.56194687
H    20.31999969   2.22000003  58.18999863
H    19.27000046   0.63000000  53.66000366
H    21.57999992   1.03999996  52.87000275
H    23.90999985   1.79000008  53.37999725
H    22.72999954   2.72000027  57.41000366
H    14.46000004   1.58999991  57.50000000
H    25.48999977   2.66000009  54.93999863
H    24.76000023   3.63000011  56.27999878
S    13.94999981   0.74000001  52.77999878
C    11.28000069   0.50999999  53.39000320
C    12.53999901   0.82000005  53.86000061
C    12.88000011   1.23000002  55.18000031
C    11.84999943   1.34000003  56.10000229
C    10.50000000   1.13000000  55.73999786
C     9.36999989   1.19000006  56.60999680
C     8.10999966   0.90000004  56.12999725
C     7.88999987   0.56000000  54.77000427
C     8.94999981   0.56999999  53.89999771
C    10.27999973   0.75999999  54.36999893
C    14.32999992   1.29999995  55.35999680
C    15.03000069   0.93000001  54.18000031
C    16.40999985   0.76999998  54.15999985
C     6.53999996   0.13000000  54.25000000
H     5.91333914   0.92044711  53.83697510
H    11.05999947   0.27000001  52.36000061
H    12.17000008   1.61000001  57.09999847
H     9.39000034   1.43999994  57.65999603
H     7.23999977   0.79999995  56.77000046
H     8.84000015   0.32999998  52.84000015
H    16.79999924   0.57999998  53.15999985
H     5.92999983  -0.34999999  55.02999878
H     6.80999994  -0.52999997  53.41999817
S    14.00000000  -1.58999991  49.86000061
C    11.36000061  -1.97000003  50.73999786
C    12.71000004  -2.04999995  50.98999786
C    13.22999954  -2.66999984  52.18000031
C    12.32999992  -3.17000008  53.09999847
C    10.93000031  -3.00000000  52.93000031
C    10.08999920  -3.65000010  53.88000107
C     8.73000050  -3.67000008  53.69999695
C     8.25000000  -2.99000001  52.55000305
C     9.02000046  -2.34999990  51.60999680
C    10.43000031  -2.42000008  51.70999908
C    14.68999958  -2.66000009  52.22999954
C    15.19000053  -1.92000008  51.12999725
C    16.54000092  -1.58999991  51.07999802
C     6.74000025  -3.07999992  52.39999771
H     6.44210386  -2.70408320  51.42119980
H    11.03999996  -1.36999989  49.89999771
H    12.61999989  -3.81000018  53.92000198
H    10.50000000  -4.21000004  54.72000122
H     8.05000019  -4.03999996  54.45999908
H     8.76000023  -2.00000000  50.61000061
H    16.86000061  -0.97999996  50.25000000
H     6.58999968  -4.15000010  52.55000305
H     6.25999975  -2.45000005  53.15999985
S    17.98999977  -3.17000008  54.50000000
C    20.65000153  -2.50000000  53.83999634
C    19.30999947  -2.50000000  53.53000259
C    18.77000046  -1.89999998  52.34000397
C    19.70999908  -1.41000009  51.45999908
C    21.11000061  -1.49000001  51.65000153
C    22.06000137  -1.00000000  50.70999908
C    23.42000008  -1.01999998  50.93000031
C    23.88999939  -1.54999995  52.15999985
C    23.01000214  -2.03999996  53.09000015
C    21.60000038  -2.01999998  52.90000153
C    17.32999992  -1.99000001  52.16999817
C    16.79999924  -2.73999977  53.26000214
C    15.47000027  -3.14000010  53.29000092
C    25.35000038  -1.85000002  52.39999771
H    25.65604591  -1.72900534  53.43912888
H    21.00000000  -3.07999992  54.68000031
H    19.37000084  -0.88999999  50.56000137
H    21.70000076  -0.78000003  49.71000290
H    24.05999947  -0.86000001  50.06999969
H    23.39999962  -2.49000001  54.00000000
H    14.98000050  -3.65000010  54.10999680
H    25.95999908  -1.35000002  51.63999939
H    25.36000061  -2.93000007  52.21000290
