96

S    17.50000000   1.94000006  57.60000229
C    20.17000008   1.90999997  56.91999817
C    18.88000107   1.59999990  56.53999710
C    18.45000076   1.23000002  55.21999741
C    19.40999985   1.18000007  54.22999954
C    20.75000000   1.49000001  54.54999924
C    21.81999969   1.38999999  53.61000061
C    23.11000061   1.71000004  53.95000076
C    23.51000023   1.98000002  55.28999710
C    22.50999832   1.98000002  56.23000336
C    21.12999916   1.87000012  55.87999725
C    17.00000000   1.14999998  55.15999603
C    16.31000137   1.52999997  56.33999634
C    14.92000008   1.53999996  56.43000031
C    24.97999954   2.16999984  55.59999847
H    25.46510696   1.59928477  56.39186478
H    20.42000008   2.05999994  57.97000122
H    19.31999969   0.76999998  53.22000122
H    21.73000145   1.01999998  52.58999634
H    23.85999870   1.41000009  53.22000122
H    22.76000023   2.16000009  57.27000427
H    14.51000023   1.63000000  57.43000031
H    25.40999985   1.76999998  54.66999817
H    25.25000000   3.23000002  55.68000031
S    13.75000000   0.43000001  52.83000183
C    11.13999939   0.05000000  53.60000229
C    12.38000011   0.52999997  53.95000076
C    12.65999985   0.90999997  55.30000305
C    11.61000061   1.01999998  56.19999695
C    10.31999969   0.56000000  55.84000015
C     9.17000008   0.71000004  56.65999985
C     7.90999985   0.28000000  56.31000137
C     7.65999985  -0.25999999  55.01999664
C     8.73000050  -0.28000000  54.15000153
C    10.05000019   0.09000000  54.51000214
C    14.09000015   1.14999998  55.37000275
C    14.80999947   0.90999997  54.16999817
C    16.20000076   0.85000002  54.06000137
C     6.30000019  -0.64999998  54.47999954
H     5.78102016  -0.03149015  53.74773788
H    10.93999958  -0.48999998  52.67000198
H    11.56999969   1.62000000  57.11000061
H     9.28999996   1.12000000  57.65999603
H     7.04999971   0.31000000  56.97999954
H     8.57999992  -0.65999997  53.13999939
H    16.68000031   0.44000000  53.16999817
H     5.69999981  -0.83999997  55.38000107
H     6.48999977  -1.64000010  54.06000137
S    14.35999966  -1.28999996  49.87999725
C    11.84999943  -2.22000003  50.35999680
C    13.15000057  -2.21000004  50.79999924
C    13.60999966  -2.87999988  51.97999954
C    12.64000034  -3.42000008  52.78999710
C    11.28000069  -3.47000003  52.39999771
C    10.31000042  -3.96000004  53.33000183
C     8.97999954  -3.77999997  53.02999878
C     8.52999973  -3.12000012  51.86000061
C     9.47000027  -2.77999997  50.90999985
C    10.85999966  -2.79999995  51.19999695
C    15.01999950  -2.54999995  52.18000031
C    15.54999924  -1.79000008  51.10000229
C    16.90000153  -1.46000004  51.12999725
C     7.04999971  -2.89000010  51.65999985
H     6.73036671  -3.37300158  50.73661423
H    11.46999931  -1.69000006  49.48999786
H    12.94000053  -3.84000015  53.75000000
H    10.67000008  -4.48000002  54.20999908
H     8.27999973  -4.13000011  53.77999878
H     9.06999969  -2.36000013  49.99000168
H    17.34000015  -1.00999999  50.25000000
H     6.60000038  -3.37000012  52.52999878
H     6.89000034  -1.80000007  51.65999985
S    18.36000061  -2.99000001  54.47999954
C    21.02000046  -2.34999990  53.81999969
C    19.68000031  -2.29999995  53.52000427
C    19.18000031  -1.71000004  52.30999756
C    20.09000015  -1.24000001  51.38000107
C    21.48999977  -1.38000000  51.59999847
C    22.39999962  -0.82000005  50.65999985
C    23.72999954  -0.75999999  50.98999786
C    24.23000145  -1.24000001  52.22999954
C    23.35000038  -1.72000003  53.16999817
C    21.96000099  -1.82999992  52.88999939
C    17.73999977  -1.87999988  52.15999985
C    17.13999939  -2.49000001  53.29000092
C    15.78999996  -2.82999992  53.30999756
C    25.69999886  -1.05999994  52.52999878
H    26.06329536  -1.60850286  53.39905548
H    21.40000153  -2.72000027  54.77000427
H    19.71999931  -0.86000001  50.44000244
H    22.10000038  -0.38000000  49.71000290
H    24.34999847  -0.28999999  50.22999573
H    23.71999931  -2.17999983  54.08000183
H    15.42000008  -3.44000006  54.13000107
H    25.88999939  -0.03000000  52.87000275
H    26.37000084  -1.26999998  51.69000244
