96

S    17.30999947   1.53999996  57.83000183
C    19.98999977   1.86000001  57.22000122
C    18.75000000   1.43999994  56.79999924
C    18.38999939   0.93999994  55.51000214
C    19.40999985   0.79999995  54.59000015
C    20.72000122   1.13999999  55.00000000
C    21.80999947   0.94999999  54.09999847
C    23.11000061   1.24000001  54.43000031
C    23.48999977   1.77999997  55.68999863
C    22.42000198   1.99000001  56.52999878
C    21.04999924   1.70000005  56.27999878
C    16.95000076   0.79000002  55.34000015
C    16.21000099   1.08999991  56.51000214
C    14.82999992   1.05999994  56.59999847
C    24.89999962   2.19000006  56.04999924
H    25.28464699   1.70562744  56.94751358
H    20.17000008   2.23000002  58.22000122
H    19.23999977   0.50000000  53.55999756
H    21.68999863   0.48000002  53.13000107
H    23.88000107   1.08000004  53.68999863
H    22.49000168   2.48000002  57.50000000
H    14.34999943   1.36000013  57.52999878
H    25.55999947   1.94999993  55.20999908
H    24.96000099   3.26999998  56.23000336
S    13.76000023   0.09999999  52.83000183
C    11.03999996  -0.17999999  53.63999939
C    12.35000038   0.14000000  53.89999771
C    12.69999981   0.56000000  55.21999741
C    11.76000023   0.75000000  56.22000122
C    10.40999985   0.44000000  55.94999695
C     9.39000034   0.50999999  56.95000076
C     8.10000038   0.14999999  56.65000153
C     7.76000023  -0.25000000  55.33000183
C     8.69000053  -0.32000002  54.31999969
C    10.03000069   0.05000000  54.61000061
C    14.13000011   0.73000002  55.43000031
C    14.80000019   0.48000002  54.20999908
C    16.18999863   0.39000002  54.22999954
C     6.38000011  -0.79000002  55.00999832
H     5.83903503  -0.12802964  54.33379364
H    10.78999996  -0.76999998  52.76000214
H    11.95000076   1.05999994  57.23999786
H     9.76000023   0.59999996  57.97000122
H     7.53000021   0.09999999  57.56999969
H     8.47000027  -0.81000000  53.37999725
H    16.72000122   0.13000000  53.31999969
H     5.82000017  -0.86000001  55.94999695
H     6.46000004  -1.81999993  54.65999985
S    18.00000000   1.95999992  51.72999954
C    20.68000031   2.15000010  50.98999786
C    19.40000153   1.75999999  50.65999985
C    19.03000069   1.39999998  49.33000183
C    20.09000015   1.21000004  48.46000290
C    21.40999985   1.64000010  48.73000336
C    22.52000046   1.34000003  47.90000153
C    23.77000046   1.79000008  48.25000000
C    24.04000092   2.51999998  49.43999863
C    23.01000214   2.69000006  50.34000015
C    21.70999908   2.21000004  50.01999664
C    17.59000015   1.29999995  49.15999985
C    16.90999985   1.65999997  50.35999680
C    15.54999924   1.94000006  50.41999817
C    25.46999931   2.86000013  49.79999924
H    25.81287766   2.25996470  50.64290619
H    20.89999962   2.34999990  52.04000092
H    19.93999863   0.69999999  47.50999832
H    22.32000160   0.92000002  46.91999817
H    24.56999969   1.44999993  47.60000229
H    23.21000099   3.17000008  51.30000305
H    15.13000011   2.04999995  51.40999603
H    26.07999992   2.63000011  48.92000198
H    25.62000084   3.94000006  49.95999908
S    14.32000065   0.63000000  46.86000061
C    11.69999981   0.27000001  47.75000000
C    12.96000004   0.79000002  47.97999954
C    13.30000019   1.34000003  49.25000000
C    12.28000069   1.42000008  50.18000031
C    10.93999958   1.00999999  50.00000000
C     9.94999981   1.14999998  51.00999832
C     8.65999985   0.79000002  50.70000076
C     8.36000061   0.11000000  49.48999786
C     9.32999992  -0.01000000  48.52000427
C    10.69000053   0.35999998  48.74000168
C    14.73999977   1.52999997  49.34999847
C    15.40999985   1.12000000  48.16999817
C    16.79000092   1.03999996  48.04000092
C     6.90000010  -0.19000000  49.20000076
H     6.60872889   0.33570868  48.29066467
H    11.44000053  -0.16000001  46.79000092
H    12.46000099   1.79000008  51.18999863
H    10.24000072   1.57000005  51.97000122
H     7.86000013   1.13000000  51.35000229
H     9.10000038  -0.39999998  47.54000092
H    17.22999954   0.78000003  47.08000183
H     6.19000006  -0.01000000  50.00999832
H     7.00000000  -1.25000000  48.90999603
