96

S    17.78000069   2.01999998  57.48000336
C    20.51000214   2.06999993  56.97000122
C    19.23999977   1.89999998  56.47999573
C    18.92000008   1.41000009  55.17000198
C    20.00000000   1.19000006  54.33000183
C    21.31999969   1.46000004  54.75999832
C    22.40999985   1.36999989  53.85000229
C    23.71000099   1.58000004  54.25000000
C    23.97000122   2.13000011  55.54000092
C    22.95000076   2.25000000  56.45000076
C    21.61999893   1.88999999  56.10000229
C    17.48999977   1.30999994  54.89999771
C    16.76000023   1.63000000  56.07999802
C    15.36999893   1.64000010  56.10000229
C    25.38999939   2.38999987  55.96000290
H    25.69646454   1.89110386  56.87939453
H    20.65000153   2.31999993  58.02000046
H    19.89999962   0.64000005  53.40000153
H    22.03000069   0.99000001  52.90000153
H    24.54999924   1.46000004  53.57999802
H    23.15000153   2.75000000  57.39999771
H    14.78999996   1.95999992  56.95000076
H    26.04999924   1.95999992  55.20000076
H    25.52000046   3.48000002  55.98999786
S    14.27000046   0.37000000  52.58999634
C    11.54999924   0.03000000  53.36999893
C    12.84999943   0.35999998  53.66000366
C    13.23999977   0.97999996  54.88999939
C    12.22000027   1.19000006  55.79999924
C    10.85999966   0.88999999  55.54000092
C     9.81999969   1.07000005  56.49000168
C     8.48999977   0.93000001  56.16000366
C     8.11999989   0.32000002  54.93000031
C     9.11000061   0.11000000  54.00000000
C    10.48999977   0.34999999  54.26000214
C    14.67000008   1.25999999  54.94999695
C    15.43000031   0.96000004  53.80000305
C    16.81999969   0.90000004  53.75000000
C     6.67999983  -0.05000000  54.64000320
H     6.20872545   0.58550662  53.89024734
H    11.28999901  -0.51999998  52.47000122
H    12.53999901   1.50999999  56.79000092
H    10.06999969   1.43000007  57.49000168
H     7.68000031   1.33000004  56.77000046
H     8.88000011  -0.29999998  53.02999878
H    17.36999893   0.55000001  52.88000107
H     6.05000019   0.03000000  55.54000092
H     6.67999983  -1.12000000  54.38000107
S    14.55999947  -1.97000003  49.88999939
C    11.90999985  -2.49000001  50.56000137
C    13.23999977  -2.57999992  50.90999985
C    13.69999981  -3.12000012  52.15000153
C    12.79000092  -3.61999989  53.06000137
C    11.42000008  -3.58000016  52.70999908
C    10.40999985  -4.05999994  53.60000229
C     9.06000042  -3.84999990  53.39000320
C     8.61999989  -3.05000019  52.29999924
C     9.55999947  -2.80999994  51.32999802
C    10.95999908  -3.00999999  51.46999741
C    15.11999989  -2.87999988  52.37999725
C    15.69000053  -2.28999996  51.22000122
C    17.00000000  -1.84000003  51.18000031
C     7.21000004  -2.59999990  52.04000092
H     6.80448437  -3.05531597  51.13648224
H    11.59999943  -1.81999993  49.75999832
H    13.07999992  -3.84999990  54.08000183
H    10.77000046  -4.44999981  54.54000092
H     8.31999969  -4.18000031  54.10999680
H     9.26999950  -2.28999996  50.41999817
H    17.32999992  -1.28000009  50.30000305
H     6.67999983  -2.71000004  52.98999786
H     7.21000004  -1.50999999  51.86000061
S    18.48999977  -3.09999990  54.62999725
C    21.14999962  -2.53999996  53.83999634
C    19.79999924  -2.50000000  53.57999802
C    19.26000023  -1.94999993  52.36999893
C    20.10000038  -1.36000013  51.44000244
C    21.48999977  -1.46000004  51.69000244
C    22.42000198  -1.01999998  50.70000076
C    23.77000046  -0.97999996  50.93999863
C    24.33000183  -1.53999996  52.11999893
C    23.46999931  -2.09999990  53.02999878
C    22.06000137  -2.09000015  52.84999847
C    17.82999992  -2.16000009  52.25999832
C    17.25000000  -2.76999998  53.40000153
C    15.93000031  -3.19000006  53.47999954
C    25.72999954  -1.24000001  52.60000229
H    25.88621712  -1.53823006  53.63670731
H    21.45999908  -3.00999999  54.75999832
H    19.73999977  -1.13000000  50.44000244
H    21.97000122  -0.76999998  49.73999786
H    24.37999916  -0.38000000  50.27000046
H    23.75999832  -2.56000018  53.97999573
H    15.52999973  -3.67000008  54.36999893
H    25.89999962  -0.17999999  52.34000397
H    26.37000084  -1.81999993  51.91999817
