96

S    17.21999931   1.94999993  57.67000198
C    19.93999863   2.02999997  57.01000214
C    18.65999985   1.70000005  56.65999985
C    18.30999947   1.14999998  55.38000107
C    19.31999969   0.88000000  54.47999954
C    20.65000153   1.19999993  54.86000061
C    21.76000214   1.04999995  53.97999573
C    23.05000114   1.41000009  54.29999924
C    23.35000038   2.05999994  55.52000046
C    22.29999924   2.34999990  56.37000275
C    20.97999954   1.92000008  56.05999756
C    16.87000084   0.97999996  55.21999741
C    16.14999962   1.39999998  56.36000061
C    14.78999996   1.69000006  56.42000198
C    24.70999908   2.50000000  56.00000000
H    25.14520645   1.81508315  56.72772598
H    20.09000015   2.44000006  58.01000214
H    19.12999916   0.59999996  53.44999695
H    21.57999992   0.64999998  52.97999954
H    23.78999901   1.31999993  53.50999832
H    22.39999962   3.07999992  57.16999817
H    14.32000065   1.93000007  57.36999893
H    25.26000023   2.59000015  55.05000305
H    24.61999893   3.53999996  56.32999802
S    13.68000031   0.25000000  52.84999847
C    10.95000076   0.23000000  53.54000092
C    12.25000000   0.50000000  53.88000107
C    12.67000008   1.12000000  55.10000229
C    11.65999985   1.52999997  55.94999695
C    10.29999924   1.21000004  55.72000122
C     9.26000023   1.65000010  56.59999847
C     7.96000004   1.29999995  56.31999969
C     7.59000015   0.56999999  55.15999603
C     8.56999969   0.28000000  54.23999786
C     9.94000053   0.59000003  54.47999954
C    14.09999943   1.28000009  55.27000046
C    14.78000069   0.86000001  54.09000015
C    16.15999985   0.67000002  54.06000137
C     6.17999983   0.09999999  54.86000061
H     5.69789743   0.78770506  54.16520691
H    10.65999985  -0.29999998  52.63999939
H    11.85999966   2.02999997  56.90000153
H     9.61999989   2.15000010  57.49000168
H     7.13999987   1.59999990  56.97000122
H     8.23999977  -0.19999999  53.31999969
H    16.61000061   0.39999998  53.09999847
H     5.65000010  -0.07000000  55.80999756
H     6.02999973  -0.90999997  54.45999908
S    18.25000000   2.47000003  51.69000244
C    20.92000008   2.66000009  51.02000427
C    19.65999985   2.26999998  50.63000107
C    19.31999969   1.66999996  49.38000107
C    20.34000015   1.52999997  48.46000290
C    21.68999863   1.79000008  48.80000305
C    22.81999969   1.58999991  47.95999908
C    24.06999969   1.98000002  48.36000061
C    24.36000061   2.42000008  49.68000031
C    23.28000069   2.69000006  50.47999954
C    21.94999886   2.39999986  50.07999802
C    17.92000008   1.26999998  49.36999893
C    17.17000008   1.75000000  50.47999954
C    15.78999996   1.79000008  50.63000107
C    25.76000023   2.80999994  50.11000061
H    26.27345657   2.18957233  50.84452820
H    21.05999947   3.22000003  51.93999863
H    20.05000114   1.08999991  47.50999832
H    22.70999908   1.10000002  46.98999786
H    24.92000198   1.95999992  47.68000031
H    23.29000092   3.15000010  51.46999741
H    15.40999985   2.07999992  51.59999847
H    26.27000046   2.89000010  49.13999939
H    25.59999847   3.81999993  50.52000046
S    14.67000008   0.41999999  47.04000092
C    12.02000046   0.62000000  47.58999634
C    13.27999973   0.97000003  48.00000000
C    13.63999939   1.43000007  49.31000137
C    12.61000061   1.81999993  50.14999771
C    11.28999901   1.46000004  49.79999924
C    10.26000023   1.75000000  50.73999786
C     8.97999954   1.30999994  50.48999786
C     8.64999962   0.75999999  49.22000122
C     9.64999962   0.41999999  48.34000015
C    11.00999928   0.75000000  48.57999802
C    15.07999992   1.43999994  49.47000122
C    15.76000023   0.87000000  48.36000061
C    17.13999939   0.76999998  48.31999969
C     7.25000000   0.25000000  48.97999573
H     6.78617287   0.76377785  48.13797760
H    11.79999924   0.35999998  46.55000305
H    12.88000011   2.21000004  51.12999725
H    10.47999954   2.05999994  51.76000214
H     8.32999992   1.47000003  51.33999634
H     9.36999989  -0.13000000  47.43999863
H    17.59000015   0.46000001  47.37999725
H     6.71000004   0.32000002  49.93999863
H     7.31999969  -0.82999998  48.81000137
