96

S    17.51000023   2.15000010  57.77999878
C    20.22999954   1.95999992  57.06999969
C    18.92000008   1.62000000  56.84000015
C    18.53000069   1.02999997  55.59000015
C    19.52000046   0.69999999  54.68999863
C    20.88999939   1.02999997  54.89999771
C    21.86000061   1.00000000  53.86000061
C    23.16999817   1.31999993  54.12000275
C    23.55999947   1.85000002  55.38000107
C    22.56999969   2.20000005  56.26999664
C    21.25000000   1.70000005  56.11999893
C    17.09000015   0.93000001  55.44000244
C    16.42000008   1.52999997  56.52999878
C    15.03000069   1.58999991  56.59000015
C    25.03000069   2.00999999  55.68000031
H    25.31370354   1.42131472  56.55238724
H    20.46999931   2.47000003  58.00000000
H    19.18000031   0.38000000  53.70999908
H    21.60000038   0.50999999  52.91999817
H    23.87000084   1.23000002  53.29000092
H    22.63999939   2.84999990  57.14000320
H    14.40999985   1.70000005  57.48000336
H    25.62999916   1.70000005  54.81999969
H    25.20000076   3.08999991  55.79999924
S    13.94999981  -0.09000000  53.11999893
C    11.26000023  -0.09999999  53.81999969
C    12.53999901   0.32999998  54.10999680
C    12.86999893   0.93000001  55.37000275
C    11.85999966   1.08999991  56.30000305
C    10.52000046   0.71999997  56.03000259
C     9.47000027   1.08999991  56.90999985
C     8.15999985   0.83999997  56.56999969
C     7.85000038   0.34999999  55.27000046
C     8.84000015  -0.03000000  54.38999939
C    10.21000004   0.14000000  54.73999786
C    14.29999924   1.12000000  55.48999786
C    15.00000000   0.56000000  54.38999939
C    16.38000107   0.39999998  54.34000015
C     6.42000008  -0.06000000  55.02999878
H     5.98580456   0.36707699  54.12601852
H    11.11999989  -0.48999998  52.81999969
H    12.13000107   1.54999995  57.25000000
H     9.76000023   1.58999991  57.83000183
H     7.39000034   1.04999995  57.30999756
H     8.60999966  -0.71000004  53.57999802
H    17.02999878   0.09000000  53.53000259
H     5.88999987   0.32000002  55.90999985
H     6.26999950  -1.14999998  55.02999878
S    17.86000061   2.26999998  52.01000214
C    20.50000000   2.27999997  51.22000122
C    19.19999886   1.95999992  50.89000320
C    18.81999969   1.33000004  49.65999985
C    19.80999947   1.05999994  48.74000168
C    21.15999985   1.38999999  49.00000000
C    22.20999908   1.26999998  48.04999924
C    23.51000023   1.50000000  48.43000031
C    23.88000107   1.99000001  49.71000290
C    22.86000061   2.29999995  50.58000183
C    21.50000000   2.00999999  50.25000000
C    17.36999893   1.21000004  49.56999969
C    16.75000000   1.76999998  50.72000122
C    15.36999893   1.90999997  50.73999786
C    25.31999969   2.29999995  50.04000092
H    25.77510262   1.77378738  50.87909698
H    20.78000069   2.57999992  52.22000122
H    19.55999947   0.74000001  47.72999573
H    21.91999817   1.03999996  47.02999878
H    24.37000084   1.38000000  47.77000046
H    23.02000046   2.76999998  51.53999710
H    14.85999966   2.21000004  51.65000153
H    25.96999931   2.34999990  49.15000153
H    25.23999977   3.38000011  50.22999573
S    14.14999962   0.59999996  47.15999985
C    11.47999954   0.65999997  47.88999939
C    12.77999973   1.00999999  48.20999908
C    13.14000034   1.39999998  49.54000092
C    12.15999985   1.48000002  50.50000000
C    10.80999947   1.23000002  50.17000198
C     9.75000000   1.42000008  51.11000061
C     8.43000031   1.41000009  50.70999908
C     8.09000015   0.83999997  49.45999908
C     9.09000015   0.59000003  48.54000092
C    10.44000053   0.93000001  48.81000137
C    14.59000015   1.48000002  49.65000153
C    15.26000023   1.03999996  48.47999954
C    16.62999916   0.85000002  48.43000031
C     6.63999987   0.63000000  49.09999847
H     6.22577810   1.19419861  48.26441574
H    11.33999920   0.14999999  46.93999863
H    12.46999931   1.58000004  51.53999710
H    10.03000069   1.69000006  52.11999893
H     7.59000015   1.65999997  51.35000229
H     8.94999981   0.28999999  47.50000000
H    17.17000008   0.50999999  47.56000137
H     5.92000008   0.73000002  49.92000198
H     6.44999981  -0.41000003  48.79000092
