96

S    17.61000061   1.88999999  57.77000046
C    20.29000092   1.53999996  57.21000290
C    18.98999977   1.28000009  56.84000015
C    18.61999893   0.76999998  55.56000137
C    19.63000107   0.48000002  54.65999985
C    20.93000031   1.00000000  54.91000366
C    21.91999817   1.00000000  53.88999939
C    23.15999985   1.56000006  54.09999847
C    23.47999954   2.10999990  55.37000275
C    22.59000015   2.05999994  56.42000198
C    21.28000069   1.56000006  56.18999863
C    17.18000031   0.82999998  55.31999969
C    16.53000069   1.38000000  56.45999908
C    15.17000008   1.62000000  56.43000031
C    24.94999886   2.37000012  55.59000015
H    25.31175232   1.63940024  56.31350327
H    20.43000031   1.94000006  58.20999908
H    19.30999947   0.09999999  53.69999695
H    21.67000008   0.75999999  52.85999680
H    23.85999870   1.48000002  53.27000046
H    22.79000092   2.49000001  57.38999939
H    14.63999939   1.93000007  57.32999802
H    25.43000031   2.29999995  54.59999847
H    25.22000122   3.33999991  56.02000427
S    14.04999924   0.46000001  52.76000214
C    11.42000008   0.16000001  53.59000397
C    12.68000031   0.62000000  53.88000107
C    13.01000023   1.13999999  55.17000198
C    11.97999954   1.34000003  56.07999802
C    10.65000057   0.93999994  55.77999878
C     9.59000015   1.15999997  56.70000076
C     8.32999992   0.69000000  56.38999939
C     8.07999992   0.01000000  55.17000198
C     9.02999973  -0.07000000  54.18000031
C    10.34999943   0.37000000  54.48999786
C    14.45000076   1.26999998  55.27999878
C    15.14000034   0.83999997  54.12000275
C    16.48999977   0.51999998  54.15000153
C     6.71999979  -0.59999996  54.93999863
H     6.17332602  -0.18111971  54.09513855
H    11.19999981  -0.25999999  52.61000061
H    12.17000008   1.81999993  57.02999878
H     9.89000034   1.49000001  57.69000244
H     7.53000021   0.76999998  57.12999725
H     8.76999950  -0.51999998  53.22999954
H    16.90999985   0.17000002  53.20999908
H     6.26999950  -0.50000000  55.93000031
H     6.84999990  -1.66999996  54.71000290
S    18.19000053   2.25000000  51.79999924
C    20.85000038   2.66999984  50.97000122
C    19.57999992   2.23000002  50.70000076
C    19.13999939   1.81999993  49.40000153
C    20.13000107   1.67999995  48.43999863
C    21.47000122   2.07999992  48.63999939
C    22.43999863   1.99000001  47.61000061
C    23.75000000   2.23000002  47.93000031
C    24.18000031   2.59000015  49.23999786
C    23.21000099   2.82999992  50.19000244
C    21.84000015   2.50999975  49.97000122
C    17.70000076   1.62000000  49.29000092
C    17.04000092   2.01999998  50.47000122
C    15.65999985   2.17999983  50.50000000
C    25.65000153   2.73999977  49.56999969
H    25.97150993   2.20414996  50.46308136
H    21.11999893   3.05000019  51.95999908
H    19.86999893   1.21000004  47.49000168
H    22.13999939   1.57000005  46.65000153
H    24.53000069   2.00999999  47.21000290
H    23.34000015   3.19999981  51.19999695
H    15.22999954   2.44000006  51.46999741
H    26.15999985   2.44000006  48.63999939
H    25.75000000   3.79999995  49.81999969
S    14.47999954   0.90999997  46.90999985
C    11.77999973   0.90000004  47.63000107
C    13.07999992   1.25999999  47.94000244
C    13.40999985   1.66999996  49.27000046
C    12.38000011   1.80000007  50.20000076
C    11.03999996   1.43999994  49.93000031
C    10.01999950   1.41000009  50.93000031
C     8.73999977   0.99000001  50.68000031
C     8.43000031   0.59000003  49.34999847
C     9.40999985   0.54000002  48.39000320
C    10.76000023   0.94999999  48.61000061
C    14.85000038   1.75999999  49.43999863
C    15.52999973   1.29999995  48.29000092
C    16.92000008   1.28999996  48.16999817
C     7.00000000   0.20999999  49.03999710
H     6.48660803   0.76617497  48.25565338
H    11.69000053   0.50000000  46.63000107
H    12.61000061   2.05999994  51.23000336
H    10.36999893   1.81999993  51.86999893
H     7.97999954   1.18000007  51.43000031
H     9.23999977   0.20999999  47.36999893
H    17.39999962   1.07000005  47.22999954
H     6.52999973   0.34000003  50.01999664
H     7.09999990  -0.86000001  48.79000092
