96

S    17.20000076   2.19000006  57.71999741
C    19.88000107   2.31999993  56.93000031
C    18.60000038   1.88999999  56.68000031
C    18.25000000   1.15999997  55.50000000
C    19.25000000   0.76999998  54.62999725
C    20.59000015   1.13999999  54.91000366
C    21.70000076   0.90999997  54.03999710
C    23.00000000   1.30999994  54.22000122
C    23.32999992   1.99000001  55.43000031
C    22.27999878   2.33999991  56.24000168
C    20.93000031   1.92000008  56.06999969
C    16.79999924   1.05999994  55.34000015
C    16.10999870   1.52999997  56.49000168
C    14.73000050   1.75000000  56.51000214
C    24.75000000   2.44000006  55.72999954
H    25.30427933   1.64411175  56.22742844
H    20.00000000   3.07999992  57.70000076
H    19.13999939   0.24000001  53.68999863
H    21.50000000   0.38000000  53.11000061
H    23.65999985   1.16999996  53.37999725
H    22.49000168   2.96999979  57.09999847
H    14.37999916   2.23000002  57.41000366
H    25.17999840   2.91000009  54.84000397
H    24.63000107   3.35000014  56.31999969
S    13.55000019   0.34000003  52.95999908
C    10.88999939   0.11000000  53.72000122
C    12.15999985   0.51999998  54.05000305
C    12.55000019   1.12000000  55.28999710
C    11.56999969   1.31999993  56.25000000
C    10.22999954   1.01999998  55.90999985
C     9.15000057   1.25000000  56.81000137
C     7.82999992   1.07000005  56.47999573
C     7.49000025   0.41000003  55.27999878
C     8.48999977   0.22000000  54.34999847
C     9.86999989   0.44000000  54.65000153
C    13.99000072   1.28000009  55.41999817
C    14.67000008   0.88999999  54.22999954
C    16.04999924   0.76999998  54.20000076
C     6.06999969   0.00000000  54.93999863
H     5.71360779   0.58448321  54.09178543
H    10.62999916  -0.41999999  52.80000305
H    11.87000084   1.72000003  57.22000122
H     9.42000008   1.69000006  57.77000046
H     7.07000017   1.24000001  57.23999786
H     8.26000023  -0.28000000  53.41999817
H    16.51000023   0.41000003  53.29000092
H     5.44000053   0.12000000  55.83000183
H     5.97000027  -1.05999994  54.68999863
S    14.27999973  -1.71000004  49.88999939
C    11.61000061  -2.06999993  50.63999939
C    12.94000053  -2.23000002  50.93000031
C    13.43999958  -2.84999990  52.11999893
C    12.51999950  -3.49000001  52.93000031
C    11.14999962  -3.48000002  52.58999634
C    10.11999989  -3.91000009  53.47999954
C     8.78999996  -3.76999998  53.13999939
C     8.34000015  -3.01999998  52.02000046
C     9.28999996  -2.59999990  51.11999893
C    10.67000008  -2.77999997  51.43000031
C    14.88000011  -2.76999998  52.29999924
C    15.44999981  -2.16000009  51.14999771
C    16.79999924  -1.86000001  51.09000397
C     6.88000011  -2.63000011  51.88999939
H     6.39078712  -3.03413224  51.00374603
H    11.16000080  -1.49000001  49.84000397
H    12.86000061  -3.86000013  53.89999771
H    10.47999954  -4.28000021  54.43999863
H     8.05999947  -4.02999973  53.88999939
H     9.06999969  -1.97000003  50.27000046
H    17.09000015  -1.38000000  50.15999603
H     6.42000008  -3.07000017  52.77999878
H     6.90999985  -1.53999996  51.86000061
S    18.27999878  -3.35000014  54.45000076
C    20.95000076  -3.05999994  53.61999893
C    19.61000061  -2.89999986  53.36000061
C    19.15999985  -2.34999990  52.11000061
C    20.13000107  -1.95999992  51.19999695
C    21.52000046  -2.04999995  51.45000076
C    22.49000168  -1.42000008  50.63000107
C    23.78999901  -1.26999998  51.05999756
C    24.20000076  -1.87000012  52.28000259
C    23.29999924  -2.51999998  53.09000015
C    21.93000031  -2.61999989  52.70000076
C    17.71000099  -2.25999999  52.08000183
C    17.11000061  -2.84999990  53.22000122
C    15.75000000  -3.12999988  53.34000015
C    25.63999939  -1.69000006  52.70000076
H    25.93832397  -2.14459085  53.64469528
H    21.31000137  -3.49000001  54.54999924
H    19.71999931  -1.38000000  50.38000107
H    21.98999786  -0.75999999  49.93000031
H    24.44000053  -0.68000007  50.41999817
H    23.64000130  -2.63999987  54.10999680
H    15.36999893  -3.68999982  54.18000031
H    26.01000023  -0.65999997  52.63000107
H    26.15999985  -2.25000000  51.90999985
