96

S    17.61000061   1.86000001  57.71999741
C    20.32999992   1.80000007  57.04000092
C    19.03000069   1.46000004  56.73999786
C    18.67000008   0.86000001  55.48999786
C    19.68000031   0.65999997  54.56999969
C    21.04000092   0.96000004  54.81999969
C    22.07999992   0.82999998  53.86000061
C    23.35000038   1.25999999  54.13999939
C    23.72999954   1.80000007  55.40000153
C    22.69000053   2.02999997  56.26999664
C    21.35999870   1.57000005  56.09000397
C    17.22999954   0.86000001  55.26000214
C    16.54999924   1.38000000  56.38999939
C    15.17000008   1.52999997  56.36000061
C    25.17000008   2.17999983  55.65000153
H    25.61177635   1.60284233  56.46229553
H    20.51000214   2.38000011  57.94000244
H    19.47000122   0.32000002  53.55999756
H    21.73000145   0.62000000  52.84999847
H    23.97999954   1.08999991  53.27000046
H    23.03999901   2.59000015  57.14000320
H    14.57999992   1.80000007  57.22999954
H    25.78000069   2.07999992  54.73999786
H    25.20000076   3.26999998  55.77999878
S    14.06000042   0.25000000  52.72999573
C    11.33999920   0.43000001  53.40000153
C    12.64999962   0.79000002  53.66000366
C    13.02999973   1.21000004  54.97000122
C    12.06999969   1.49000001  55.93000031
C    10.77000046   0.97999996  55.70000076
C     9.80000019   0.93999994  56.73999786
C     8.48999977   0.56999999  56.52000046
C     8.13000011   0.09999999  55.22999573
C     9.03999996   0.00000000  54.20000076
C    10.36000061   0.48999998  54.40999985
C    14.47000027   1.22000003  55.19000244
C    15.15999985   0.71999997  54.05000305
C    16.53000069   0.55000001  54.08000183
C     6.76000023  -0.51999998  55.04000092
H     6.31669855   0.05200231  54.22489548
H    11.14999962  -0.13000000  52.49000168
H    12.30999947   1.77999997  56.95000076
H    10.10000038   1.36000013  57.70000076
H     7.82000017   0.44000000  57.36000061
H     8.78000069  -0.35999998  53.20999908
H    17.02999878   0.17999999  53.18999863
H     6.17000008  -0.39000002  55.94999695
H     6.83000040  -1.58000004  54.75999832
S    14.07999992  -1.63000000  49.94999695
C    11.36000061  -2.17999983  50.66999817
C    12.71999931  -2.26999998  50.89000320
C    13.26000023  -2.96999979  52.01000214
C    12.35999966  -3.40999985  52.97000122
C    10.97000027  -3.23000002  52.81999969
C    10.07999992  -3.82999992  53.75999832
C     8.73000050  -3.89999986  53.54000092
C     8.21000004  -3.30999994  52.35000229
C     9.01000023  -2.61999989  51.47999573
C    10.42000008  -2.59000015  51.65000153
C    14.70999908  -2.86999989  52.18999863
C    15.29999924  -2.09999990  51.16000366
C    16.64999962  -1.76999998  51.17000198
C     6.76000023  -3.55999994  52.02000046
H     6.51029587  -3.03205466  51.09966278
H    11.02000046  -1.66999996  49.77000427
H    12.65999985  -4.03999996  53.80000305
H    10.47999954  -4.32999992  54.64000320
H     8.11999989  -4.53000021  54.18000031
H     8.61999989  -2.17999983  50.56000137
H    17.12000084  -1.25999999  50.33000183
H     6.48000002  -4.61999989  51.93999863
H     6.10000038  -3.17999983  52.81000137
S    17.97999954  -3.38000011  54.58000183
C    20.65000153  -2.98000002  53.97999573
C    19.34000015  -2.72000027  53.66000366
C    18.88000107  -2.14000010  52.43000031
C    19.88000107  -1.64000010  51.63000107
C    21.25000000  -1.72000003  51.98999786
C    22.27999878  -1.15999997  51.18000031
C    23.62999916  -1.35000002  51.38999939
C    24.02000046  -2.23000002  52.43000031
C    23.05999947  -2.75999999  53.25000000
C    21.65999985  -2.56000018  53.08000183
C    17.43000031  -2.20000005  52.25000000
C    16.82999992  -2.91000009  53.31999969
C    15.48999977  -3.28000021  53.27000046
C    25.50000000  -2.40999985  52.70999908
H    25.93542290  -1.97457731  53.60939407
H    20.86000061  -3.52999973  54.88999939
H    19.62000084  -1.26999998  50.63999939
H    21.93000031  -0.63000000  50.30000305
H    24.44000053  -0.81000000  50.90999985
H    23.34000015  -3.32999992  54.13999939
H    15.08999920  -3.88999987  54.08000183
H    26.05999947  -2.10999990  51.81999969
H    25.62999916  -3.50000000  52.77000046
