96

S    17.34000015   1.57000005  57.83000183
C    19.95000076   1.81999993  57.00000000
C    18.68000031   1.39999998  56.68000031
C    18.30999947   1.03999996  55.34999847
C    19.26000023   0.99000001  54.34000015
C    20.59000015   1.34000003  54.65000153
C    21.65999985   1.11000001  53.73000336
C    22.96999931   1.36999989  54.06999969
C    23.26999855   1.88999999  55.35999680
C    22.27000046   2.16000009  56.26999664
C    20.92000008   1.82999992  55.96000290
C    16.86000061   0.97000003  55.22999573
C    16.23999977   1.29999995  56.45999908
C    14.85999966   1.46000004  56.46999741
C    24.71999931   2.21000004  55.65999985
H    25.13296318   1.54071307  56.41473007
H    20.28000069   2.16000009  57.97999954
H    19.11999893   0.46000001  53.40000153
H    21.38000107   0.88000000  52.70999908
H    23.67000198   1.36000013  53.23999786
H    22.46999931   2.53999996  57.27000427
H    14.46000004   1.80000007  57.42000198
H    25.23999977   2.06999993  54.69999695
H    24.79000092   3.25000000  55.97000122
S    13.67000008  -0.04000000  52.95999908
C    10.95999908  -0.14999999  53.63999939
C    12.25000000   0.14000000  54.01000214
C    12.64000034   0.73000002  55.26000214
C    11.59999943   0.90999997  56.14999771
C    10.26999950   0.51999998  55.89000320
C     9.19000053   0.64000005  56.81000137
C     7.92000008   0.28999999  56.43000031
C     7.55999994  -0.28000000  55.18000031
C     8.59000015  -0.38000000  54.27000046
C     9.94000053  -0.06000000  54.61000061
C    14.06999969   0.94999999  55.43000031
C    14.73000050   0.56999999  54.23999786
C    16.10999870   0.56000000  54.12000275
C     6.11000013  -0.61000001  54.87999725
H     5.76086235  -0.07560575  53.99646759
H    10.72999954  -0.57999998  52.65999603
H    11.57999992   1.19000006  57.19999695
H     9.44000053   1.11000001  57.76000214
H     7.07999992   0.52999997  57.06999969
H     8.30000019  -0.64000005  53.25000000
H    16.64999962   0.13000000  53.27999878
H     5.46000004  -0.39999998  55.73999786
H     6.01999998  -1.67999995  54.66999817
S    17.52000046   2.16999984  51.69000244
C    20.22000122   2.27999997  51.00999832
C    18.94000053   1.90999997  50.65999985
C    18.60999870   1.30999994  49.40000153
C    19.61000061   1.13999999  48.46000290
C    20.93000031   1.54999995  48.75999832
C    21.98999786   1.43999994  47.81000137
C    23.29999924   1.65000010  48.18000031
C    23.61999893   2.20000005  49.43999863
C    22.59000015   2.46000004  50.31999969
C    21.25000000   2.09999990  50.05000305
C    17.17000008   1.23000002  49.20000076
C    16.46999931   1.65000010  50.35999680
C    15.07999992   1.66999996  50.50000000
C    25.03999901   2.59000015  49.75999832
H    25.43861198   1.92801690  50.52875519
H    20.38000107   2.76999998  51.97000122
H    19.31999969   0.71000004  47.50000000
H    21.71999931   1.14999998  46.79999924
H    24.11000061   1.41000009  47.50000000
H    22.79999924   2.79000020  51.33999634
H    14.53999996   1.94000006  51.39999771
H    25.71000099   2.50000000  48.88999939
H    25.03000069   3.61999989  50.13999939
S    13.92000008   0.61000001  46.84000015
C    11.23999977   0.43000001  47.56000137
C    12.51000023   0.82999998  47.90000153
C    12.88000011   1.12000000  49.25000000
C    11.89000034   1.23000002  50.20999908
C    10.57000065   0.82999998  49.88999939
C     9.48999977   1.08000004  50.77999878
C     8.18000031   0.86000001  50.40999985
C     7.88999987   0.31000000  49.13000107
C     8.89999962   0.02000000  48.22999954
C    10.21999931   0.44000000  48.54000092
C    14.32000065   1.22000003  49.41999817
C    15.01000023   0.87000000  48.22000122
C    16.39000130   0.88000000  48.09000015
C     6.52999973  -0.12000000  48.63999939
H     6.22436476   0.50548685  47.80127716
H    10.98000050   0.06000000  46.58000183
H    12.23000050   1.59999990  51.17000198
H     9.71000004   1.50999999  51.75000000
H     7.48000050   1.07000005  51.20999908
H     8.63000011  -0.41999999  47.27000427
H    16.84999847   0.48999998  47.18999863
H     5.88000011  -0.02000000  49.52999878
H     6.61999989  -1.16999996  48.36000061
