96

S    18.02000046   2.29999995  57.76000214
C    20.72000122   2.44000006  57.01000214
C    19.45000076   1.99000001  56.76000214
C    19.10000038   1.54999995  55.44000244
C    20.12000084   1.33000004  54.54000092
C    21.42000008   1.86000001  54.72999954
C    22.50000000   1.69000006  53.81999969
C    23.80000114   1.95999992  54.16999817
C    24.03000069   2.66999984  55.38000107
C    23.05999947   2.79999995  56.35000229
C    21.73000145   2.43000007  56.00999832
C    17.65999985   1.33000004  55.33000183
C    16.93000031   1.79000008  56.45000076
C    15.53999996   1.86000001  56.43000031
C    25.48000145   2.84999990  55.79000092
H    25.81264877   2.16346979  56.56853867
H    20.98999977   2.82999992  57.97999954
H    19.96000099   0.75000000  53.62999725
H    22.22999954   1.11000001  52.94000244
H    24.51000023   1.56000006  53.44999695
H    23.40999985   3.07999992  57.34000397
H    15.15999985   2.25000000  57.36999893
H    26.11999893   2.82999992  54.89999771
H    25.52999878   3.88000011  56.13999939
S    14.47000027   0.69999999  52.81999969
C    11.76000023   0.68000007  53.36000061
C    13.02999973   0.93000001  53.82999802
C    13.32999992   1.36000013  55.15999603
C    12.25999928   1.58000004  56.00999832
C    10.93000031   1.36999989  55.59999847
C     9.81999969   1.53999996  56.47999573
C     8.53999996   1.19999993  56.09000397
C     8.31999969   0.86000001  54.72999954
C     9.35999966   0.59999996  53.86000061
C    10.69000053   0.88999999  54.27000046
C    14.77000046   1.52999997  55.31000137
C    15.52000046   1.10000002  54.19000244
C    16.90999985   0.99000001  54.20000076
C     6.98000002   0.25000000  54.38999939
H     6.33397245   1.00961447  53.94984818
H    11.72999954   0.17999999  52.39999771
H    12.46999931   2.03999996  56.97999954
H     9.96999931   1.90999997  57.49000168
H     7.72000027   1.07000005  56.79000092
H     9.13999939  -0.01000000  52.98999786
H    17.39999962   0.75999999  53.26000214
H     6.43000031  -0.25999999  55.19000244
H     7.07999992  -0.43000001  53.54000092
S    18.18000031   2.64999986  51.70000076
C    20.94000053   2.80999994  51.00999832
C    19.63999939   2.46000004  50.70999908
C    19.36000061   1.90999997  49.41999817
C    20.36999893   1.70000005  48.48999786
C    21.71999931   1.98000002  48.81999969
C    22.80999947   1.72999990  47.94000244
C    24.11000061   2.03999996  48.27000046
C    24.34999847   2.73000002  49.47999954
C    23.32999992   3.02999997  50.34999847
C    22.00000000   2.59000015  50.08999634
C    17.92000008   1.82999992  49.23999786
C    17.12000084   2.17999983  50.34999847
C    15.75000000   2.43000007  50.38000107
C    25.75000000   3.19999981  49.78000259
H    26.14242744   2.68627810  50.65760803
H    21.27000046   3.30000019  51.93000031
H    20.12000084   1.21000004  47.56000137
H    22.53000069   1.44999993  46.93000031
H    24.93999863   1.92000008  47.58999634
H    23.48999977   3.68999982  51.20999908
H    15.19999981   2.61999989  51.29000092
H    26.35999870   3.09999990  48.86000061
H    25.63999939   4.28000021  49.93999863
S    14.72000027   1.04999995  46.84999847
C    11.97999954   0.92000002  47.55000305
C    13.25000000   1.41000009  47.77000046
C    13.57999992   2.01999998  49.02999878
C    12.65999985   2.21000004  50.04000092
C    11.31000042   1.88999999  49.77000427
C    10.25000000   2.14000010  50.68999863
C     8.93999958   1.93000007  50.34000015
C     8.64000034   1.26999998  49.10999680
C     9.65999985   0.79999995  48.33000183
C    11.00999928   1.19999993  48.54000092
C    15.01999950   2.10999990  49.22999954
C    15.78999996   1.65000010  48.13000107
C    17.17000008   1.50999999  48.09999847
C     7.26000023   0.69999999  48.86000061
H     6.67591667   1.25559163  48.12633514
H    11.61999893   0.34999999  46.70000076
H    12.97999954   2.49000001  51.04000092
H    10.53999996   2.50000000  51.68000031
H     8.19000053   2.10999990  51.09000397
H     9.53999996   0.13000000  47.48000336
H    17.73999977   1.21000004  47.22000122
H     6.58999968   0.57999998  49.72000122
H     7.42999983  -0.32000002  48.52000427
