96

S    17.64000130   2.22000003  57.61000061
C    20.36000061   2.24000001  56.97999954
C    19.07999992   1.93000007  56.59999847
C    18.78999901   1.38999999  55.31000137
C    19.77000046   1.16999996  54.36000061
C    21.07999992   1.54999995  54.72999954
C    22.14999962   1.23000002  53.85000229
C    23.45000076   1.43000007  54.23999786
C    23.74000168   2.19000006  55.40999985
C    22.75000000   2.43000007  56.31999969
C    21.38999939   2.10999990  56.02000427
C    17.35999870   1.15999997  55.18000031
C    16.61000061   1.59999990  56.30000305
C    15.21999931   1.72999990  56.29000092
C    25.15000153   2.63000011  55.75000000
H    25.69803619   1.99655581  56.44749832
H    20.56999969   2.57999992  58.00000000
H    19.61000061   0.81000000  53.34000015
H    21.96000099   0.61000001  52.97999954
H    24.23000145   1.03999996  53.59000397
H    22.84000015   2.79999995  57.34000397
H    14.65999985   1.87999988  57.21000290
H    25.63999939   2.64999986  54.77000427
H    24.93000031   3.63999987  56.13999939
S    14.22999954   0.44000000  52.65999603
C    11.49000072   0.23000000  53.31999969
C    12.77999973   0.55000001  53.67000198
C    13.09000015   1.08000004  54.95999908
C    12.05000019   1.23000002  55.86000061
C    10.70000076   1.00999999  55.47000122
C     9.67000008   1.08000004  56.45000076
C     8.39999962   0.59000003  56.22000122
C     8.06999969   0.08000001  54.93999863
C     9.06000042  -0.01000000  53.97999573
C    10.39000034   0.46999997  54.18000031
C    14.52000046   1.28999996  55.17000198
C    15.26000023   0.82999998  54.05000305
C    16.64999962   0.71000004  54.06999969
C     6.67999983  -0.38000000  54.58000183
H     6.13910532   0.27476716  53.89676285
H    11.44999981  -0.57999998  52.60000229
H    12.20999908   1.44999993  56.90999985
H    10.01999950   1.26999998  57.45999908
H     7.73999977   0.43000001  57.06999969
H     8.84000015  -0.50999999  53.04999924
H    17.10000038   0.51999998  53.09999847
H     6.06999969  -0.61000001  55.47000122
H     6.76000023  -1.34000003  54.05000305
S    18.04999924   2.63999987  51.60999680
C    20.82999992   2.54999995  51.10000229
C    19.54000092   2.29999995  50.70000076
C    19.20999908   1.87999988  49.36999893
C    20.22999954   1.58000004  48.48999786
C    21.56999969   1.70000005  48.93000031
C    22.63000107   1.46000004  48.01000214
C    23.90000153   1.80000007  48.40999985
C    24.23999977   2.37000012  49.65999985
C    23.22000122   2.70000005  50.52000046
C    21.87999916   2.38999987  50.14999771
C    17.79000092   1.59999990  49.19000244
C    17.01000023   2.03999996  50.28999710
C    15.62000084   2.01999998  50.34000015
C    25.65000153   2.86000013  49.92000198
H    26.17578888   2.17079067  50.58078766
H    21.04999924   2.73000002  52.15000153
H    20.03000069   1.36999989  47.43999863
H    22.36000061   1.24000001  46.97999954
H    24.82000160   1.61000001  47.84999847
H    23.38999939   3.30000019  51.40999603
H    15.11999989   2.49000001  51.18000031
H    26.25000000   2.96999979  49.01000214
H    25.52999878   3.84999990  50.38000107
S    14.73999977   0.51999998  46.76000214
C    11.97000027   0.46999997  47.38999939
C    13.26000023   0.81000000  47.70000076
C    13.55999947   1.39999998  48.96999741
C    12.53000069   1.66999996  49.84000397
C    11.18000031   1.36000013  49.54000092
C    10.11000061   1.50000000  50.47000122
C     8.86999989   0.96000004  50.20999908
C     8.64000034   0.28999999  48.97999573
C     9.61000061   0.17000002  48.01000214
C    10.90999985   0.64999998  48.30999756
C    15.00000000   1.48000002  49.20999908
C    15.77000046   0.97999996  48.13000107
C    17.14999962   0.86000001  48.18999863
C     7.25000000  -0.23000000  48.69999695
H     6.64341879   0.45507985  48.10769272
H    11.84000015  -0.09999999  46.46999741
H    12.79999924   2.01999998  50.83000183
H    10.21000004   1.77999997  51.51000214
H     8.21000004   0.71999997  51.04000092
H     9.48000050  -0.48999998  47.15999985
H    17.75000000   0.41999999  47.39999771
H     6.67999983  -0.34000003  49.62999725
H     7.23999977  -1.25000000  48.27999878
