96

S    17.42000008   2.16000009  57.67000198
C    20.15000153   1.88999999  57.11000061
C    18.85000038   1.59999990  56.77000046
C    18.55999947   1.00000000  55.51000214
C    19.57999992   0.64999998  54.65000153
C    20.92000008   0.96000004  54.98000336
C    22.07999992   0.69999999  54.19000244
C    23.36000061   1.00999999  54.59000015
C    23.59000015   1.85000002  55.70999908
C    22.49000168   2.22000003  56.45999908
C    21.21000099   1.67999995  56.18999863
C    17.12000084   1.00999999  55.27999878
C    16.39999962   1.66999996  56.31000137
C    15.01000023   1.76999998  56.38000107
C    24.99000168   2.25999999  56.10000229
H    25.37343788   1.67774105  56.93788528
H    20.43999863   2.45000005  58.00000000
H    19.29999924   0.09000000  53.75000000
H    21.88999939   0.25000000  53.22000122
H    24.23999977   0.78000003  54.00000000
H    22.72999954   2.82000017  57.34000397
H    14.44000053   2.22000003  57.18999863
H    25.65999985   2.25000000  55.22999573
H    24.89000130   3.30999994  56.38999939
S    13.89000034  -0.07000000  53.02999878
C    11.17000008  -0.04000000  53.76999664
C    12.46999931   0.32000002  54.02999878
C    12.84000015   1.11000001  55.15999603
C    11.80999947   1.36000013  56.04999924
C    10.46000004   1.00999999  55.79999924
C     9.44999981   1.19000006  56.79000092
C     8.14999962   0.79000002  56.65999985
C     7.75000000   0.48000002  55.33000183
C     8.67999935   0.23000000  54.34999847
C    10.07999992   0.43000001  54.54000092
C    14.27999973   1.26999998  55.30000305
C    14.98999977   0.64999998  54.23999786
C    16.36999893   0.52999997  54.20000076
C     6.28000021   0.19999999  55.08999634
H     5.89592409   0.74766344  54.22938538
H    10.95999908  -0.64000005  52.88999939
H    12.07999992   1.75000000  57.02000046
H     9.89999962   1.58000004  57.70999908
H     7.37999964   0.79999995  57.42000198
H     8.31999969  -0.04000000  53.36000061
H    16.79999924   0.05000000  53.33000183
H     5.65000010   0.50999999  55.93000031
H     6.14000034  -0.87000000  54.88999939
S    18.04999924   2.28999996  51.98999786
C    20.73999786   2.21000004  51.37000275
C    19.45000076   2.03999996  50.91999817
C    19.05999947   1.57000005  49.62999725
C    20.06999969   1.43999994  48.68999863
C    21.40000153   1.64000010  49.13000107
C    22.50999832   1.53999996  48.23999786
C    23.80000114   1.81999993  48.61000061
C    24.17000008   2.32999992  49.88999939
C    23.15000153   2.36000013  50.79999924
C    21.80000114   2.05999994  50.45000076
C    17.61000061   1.51999998  49.43999863
C    16.95999908   1.89999998  50.65000153
C    15.57999992   2.05999994  50.66999817
C    25.59000015   2.69000006  50.26000214
H    26.02349281   1.97224855  50.95643234
H    20.92000008   2.39999986  52.43000031
H    19.96000099   1.19000006  47.63999939
H    22.25000000   1.26999998  47.22000122
H    24.54999924   1.82999992  47.83000183
H    23.22999954   2.73000002  51.81999969
H    15.05000019   2.33999991  51.58000183
H    26.15999985   2.66999984  49.31999969
H    25.65000153   3.71000004  50.65999985
S    14.34999943   0.48000002  47.22999954
C    11.65999985   0.57999998  48.00000000
C    12.96000004   1.00000000  48.20000076
C    13.40999985   1.59999990  49.41999817
C    12.56000042   1.74000001  50.50000000
C    11.19999981   1.38999999  50.28999710
C    10.15999985   1.53999996  51.25000000
C     8.82000065   1.35000002  51.00000000
C     8.39999962   0.93000001  49.71000290
C     9.35999966   0.69999999  48.74000168
C    10.73999977   0.88999999  49.02999878
C    14.85999966   1.69000006  49.54000092
C    15.50000000   1.18000007  48.37999725
C    16.88999939   1.13000000  48.30999756
C     7.00000000   0.46999997  49.36999893
H     6.53807116   0.96746159  48.51720810
H    11.40999985  -0.06000000  47.15000153
H    12.90999985   2.07999992  51.46999741
H    10.42000008   1.94999993  52.22999954
H     8.10000038   1.62000000  51.76000214
H     9.07999992   0.41000003  47.72999573
H    17.43999863   0.78000003  47.43999863
H     6.32999992   0.61000001  50.22999573
H     7.02000046  -0.62000000  49.25000000
