96

S    17.50000000   2.09999990  57.62000275
C    20.20000076   2.14000010  56.90000153
C    18.92000008   1.72000003  56.62000275
C    18.54999924   1.14999998  55.35999680
C    19.57999992   0.87000000  54.47999954
C    20.92000008   1.23000002  54.73999786
C    21.97999954   1.07000005  53.79000092
C    23.26999855   1.41000009  54.09000015
C    23.59000015   2.03999996  55.33000183
C    22.60000038   2.24000001  56.25999832
C    21.25000000   1.87999988  55.97999954
C    17.11000061   1.13000000  55.18000031
C    16.40999985   1.52999997  56.35000229
C    15.01999950   1.50999999  56.43000031
C    24.99000168   2.54999995  55.58000183
H    25.46886826   1.92103946  56.33046722
H    20.35000038   2.79999995  57.74000168
H    19.38999939   0.59000003  53.44999695
H    21.65999985   0.78000003  52.78999710
H    23.94000053   1.42000008  53.23999786
H    22.81999969   2.66999984  57.23999786
H    14.56999969   1.80999994  57.36999893
H    25.63999939   2.63999987  54.71000290
H    24.90999985   3.47000003  56.18000031
S    13.90999985   0.07000000  52.90000153
C    11.19999981   0.14000000  53.50000000
C    12.48000050   0.48999998  53.87000275
C    12.81999969   1.11000001  55.12000275
C    11.80999947   1.25000000  56.04000092
C    10.47999954   0.90999997  55.70000076
C     9.40999985   1.04999995  56.63999939
C     8.14999962   0.61000001  56.31999969
C     7.77999973   0.22000000  55.00000000
C     8.78999996   0.09000000  54.06999969
C    10.14000034   0.43000001  54.38999939
C    14.27000046   1.18000007  55.28999710
C    14.98000050   0.69999999  54.16999817
C    16.36999893   0.68000007  54.08000183
C     6.43000031  -0.31000000  54.59999847
H     5.86233997   0.39247978  53.98976517
H    11.03999996  -0.32999998  52.54000092
H    12.13999939   1.65000010  57.00000000
H     9.68999958   1.48000002  57.60000229
H     7.44000006   0.50000000  57.12999725
H     8.64999962  -0.11000000  53.01000214
H    16.86000061   0.25000000  53.20999908
H     6.03999996  -0.75000000  55.52000046
H     6.48000002  -1.18000007  53.93000031
S    17.89999962   2.21000004  51.72000122
C    20.59999847   2.52999997  51.05999756
C    19.29999924   2.37000012  50.63000107
C    19.04999924   1.84000003  49.33000183
C    20.15000153   1.63000000  48.50999832
C    21.47999954   1.94999993  48.87000275
C    22.59000015   1.80000007  47.98999786
C    23.85999870   2.09999990  48.43999863
C    24.11999893   2.54999995  49.75999832
C    23.05999947   2.71000004  50.61999893
C    21.73000145   2.44000006  50.20999908
C    17.61999893   1.62000000  49.15999985
C    16.86000061   1.87000012  50.33000183
C    15.47000027   1.92000008  50.41999817
C    25.52000046   3.01999998  50.08999634
H    26.08142281   2.23827481  50.60167313
H    20.86000061   2.89000010  52.04999924
H    19.88999939   1.13999999  47.57999802
H    22.27999878   1.39999998  47.04000092
H    24.70000076   2.14000010  47.76000214
H    23.08000183   3.17999983  51.59999847
H    15.01000023   2.14000010  51.37000275
H    26.00000000   3.38999987  49.16999817
H    25.36999893   3.73000002  50.91999817
S    14.34999943   0.57999998  46.88000107
C    11.63000011   0.50999999  47.54000092
C    12.90999985   0.88999999  47.87000275
C    13.27000046   1.46000004  49.13999939
C    12.25999928   1.56000006  50.06999969
C    10.90999985   1.24000001  49.79000092
C     9.84000015   1.50000000  50.70000076
C     8.56999969   1.12000000  50.35999680
C     8.26000023   0.62000000  49.06999969
C     9.26000023   0.37000000  48.15000153
C    10.59000015   0.73000002  48.48999786
C    14.72000027   1.48000002  49.31999969
C    15.44999981   1.05999994  48.18999863
C    16.84000015   1.08999991  48.13000107
C     6.81999969   0.24000001  48.82999802
H     6.47340775   0.55829871  47.84680939
H    11.44999981   0.14999999  46.52999878
H    12.48000050   1.74000001  51.11999893
H    10.22999954   1.72000003  51.69000244
H     7.81000042   0.99000001  51.13999939
H     9.11999989  -0.09000000  47.18000031
H    17.30999947   0.85000002  47.18000031
H     6.14000034   0.64999998  49.59000015
H     6.75000000  -0.85000002  48.88999939
