96

S    17.32999992   2.00000000  57.56999969
C    20.03000069   2.16000009  56.95000076
C    18.78999901   1.65999997  56.62000275
C    18.40999985   1.13999999  55.34000015
C    19.45999908   0.82000005  54.50000000
C    20.78000069   1.19999993  54.82999802
C    21.90000153   1.04999995  53.95999908
C    23.12999916   1.65999997  54.10999680
C    23.45000076   2.19000006  55.38000107
C    22.43000031   2.30999994  56.30000305
C    21.09999847   1.87000012  56.05999756
C    16.97000122   1.13000000  55.14999771
C    16.22999954   1.71000004  56.20999908
C    14.85000038   1.85000002  56.24000168
C    24.82999992   2.75000000  55.65999985
H    25.26449013   2.18729734  56.48624802
H    20.31999969   2.75000000  57.81999969
H    19.27000046   0.46999997  53.47999954
H    21.64999962   0.52999997  53.04999924
H    23.88000107   1.62000000  53.33000183
H    22.60999870   2.89999986  57.18999863
H    14.26000023   2.24000001  57.06999969
H    25.52999878   2.68000007  54.81999969
H    24.68000031   3.79999995  55.93000031
S    13.75000000   0.11000000  52.85999680
C    11.07999992  -0.13000000  53.62999725
C    12.34000015   0.37000000  53.89999771
C    12.68000031   1.08000004  55.08999634
C    11.63000011   1.33000004  55.96000290
C    10.29999924   0.93000001  55.72000122
C     9.22000027   1.33000004  56.56000137
C     7.90999985   1.07000005  56.25000000
C     7.60999966   0.25999999  55.12000275
C     8.64999962  -0.16000001  54.31999969
C    10.01999950   0.19000000  54.51000214
C    14.11999893   1.24000001  55.20999908
C    14.85000038   0.71000004  54.10999680
C    16.23999977   0.69000000  54.02999878
C     6.24000025  -0.34000003  54.89999771
H     5.80461359   0.12393627  54.01495361
H    11.00999928  -0.81000000  52.78999710
H    11.78999996   1.81999993  56.91999817
H     9.46000004   1.89999998  57.44999695
H     7.17999983   1.43000007  56.97000122
H     8.55000019  -0.82999998  53.47000122
H    16.84000015   0.41000003  53.16999817
H     5.58000040  -0.28000000  55.77000046
H     6.38999987  -1.42000008  54.72999954
S    17.86999893   2.10999990  51.63000107
C    20.55999947   2.48000002  50.93000031
C    19.29000092   2.07999992  50.56999969
C    18.98999977   1.66999996  49.22999954
C    20.05000114   1.50999999  48.34999847
C    21.38999939   1.75000000  48.74000168
C    22.46999931   1.69000006  47.81000137
C    23.75999832   1.97000003  48.15999985
C    24.02000046   2.38000011  49.50000000
C    23.01000214   2.42000008  50.43000031
C    21.64999962   2.16000009  50.08999634
C    17.56000137   1.43999994  49.06999969
C    16.82999992   1.87000012  50.20999908
C    15.44999981   2.00000000  50.31000137
C    25.39999962   2.84999990  49.91000366
H    25.91014862   2.20522738  50.62562561
H    20.61000061   2.70000005  51.98999786
H    19.85999870   1.30999994  47.29999924
H    22.29999924   1.21000004  46.84999847
H    24.60000038   1.95999992  47.47000122
H    23.09999847   2.75000000  51.45999908
H    14.88999939   2.28999996  51.18999863
H    26.07000160   2.89999986  49.03999710
H    25.43000031   3.86000013  50.34000015
S    14.29999924   0.56999999  46.79000092
C    11.56000042   0.69000000  47.55000305
C    12.89000034   0.85000002  47.84000015
C    13.28999996   1.36999989  49.10999680
C    12.34000015   1.65999997  50.07999802
C    10.98999977   1.29999995  49.88999939
C     9.92999935   1.46000004  50.84000015
C     8.60999966   1.19000006  50.61000061
C     8.27000046   0.78000003  49.29000092
C     9.22000027   0.57999998  48.31999969
C    10.59000015   0.88000000  48.56999969
C    14.73000050   1.48000002  49.22000122
C    15.43000031   1.07000005  48.06000137
C    16.81999969   1.01999998  47.97000122
C     6.96000004   0.16000001  48.86000061
H     6.44736528   0.82215333  48.16224670
H    11.25000000   0.25000000  46.60999680
H    12.58999920   2.04999995  51.05999756
H    10.18000031   1.49000001  51.90000153
H     7.88999987   0.94999999  51.38999939
H     8.89999962   0.28000000  47.32999802
H    17.32999992   0.93000001  47.01000214
H     6.32000017  -0.07000000  49.72999954
H     7.11999989  -0.82000005  48.41999817
