96

S    17.69000053   2.20000005  57.67000198
C    20.42000008   2.45000005  57.11999893
C    19.14999962   2.16999984  56.66999817
C    18.75000000   1.74000001  55.35999680
C    19.76000023   1.62000000  54.43000031
C    21.11000061   1.75000000  54.80999756
C    22.22999954   1.58000004  53.94000244
C    23.52999878   1.72999990  54.38000107
C    23.82999802   2.17999983  55.68999863
C    22.78000069   2.25000000  56.56999969
C    21.42000008   2.16999984  56.16000366
C    17.31999969   1.52999997  55.13999939
C    16.61000061   1.79000008  56.32999802
C    15.21999931   1.75000000  56.43000031
C    25.22999954   2.51999998  56.14999771
H    25.69259834   1.69444168  56.69088364
H    20.69000053   2.77999997  58.11999893
H    19.60000038   1.12000000  53.47999954
H    21.96000099   1.34000003  52.91999817
H    24.28999901   1.76999998  53.61000061
H    22.88999939   2.38999987  57.64999771
H    14.68999958   1.92000008  57.36999893
H    25.89999962   2.72000027  55.31000137
H    25.17999840   3.40000010  56.79999924
S    14.06000042   0.63000000  52.80000305
C    11.39999962   0.39999998  53.50000000
C    12.67000008   0.71000004  53.89999771
C    13.04999924   1.04999995  55.24000168
C    12.02000046   1.24000001  56.14999771
C    10.67000008   1.08000004  55.76000214
C     9.61999989   1.25999999  56.70000076
C     8.31999969   0.97999996  56.33999634
C     8.05000019   0.44000000  55.06000137
C     9.03999996   0.19999999  54.12000275
C    10.34999943   0.64000005  54.43000031
C    14.47999954   1.30999994  55.33000183
C    15.17000008   1.07000005  54.12000275
C    16.54000092   1.26999998  54.01000214
C     6.61000013   0.25999999  54.64000320
H     6.31083012   0.80135518  53.74248886
H    11.19999981  -0.11000000  52.56000137
H    12.15000057   1.66999996  57.14000320
H     9.82999992   1.84000003  57.60000229
H     7.57000017   1.36000013  57.02999878
H     8.93000031  -0.25000000  53.13999939
H    17.02999878   1.10000002  53.06000137
H     5.95000029   0.57999998  55.45999908
H     6.37000036  -0.79999995  54.51000214
S    18.27999878   2.82999992  51.77000046
C    20.98999977   3.09999990  51.02000427
C    19.69000053   2.75000000  50.70000076
C    19.27999878   2.09999990  49.48999786
C    20.26000023   1.98000002  48.53000259
C    21.56999969   2.50999975  48.66000366
C    22.56999969   2.10999990  47.71999741
C    23.85000038   2.45000005  48.08000183
C    24.20999908   3.17000008  49.25000000
C    23.26000023   3.28999996  50.24000168
C    21.88999939   3.08999991  49.93000031
C    17.85000038   1.87000012  49.36999893
C    17.13999939   2.28999996  50.52000046
C    15.75000000   2.32999992  50.59999847
C    25.62999916   3.50000000  49.68000031
H    25.98433685   2.83384657  50.46662903
H    21.28999901   3.37000012  52.02999878
H    20.07999802   1.48000002  47.57999802
H    22.30999947   1.47000003  46.88000107
H    24.63999939   2.04999995  47.45999908
H    23.44000053   3.51999998  51.29000092
H    15.14000034   2.51999998  51.47999573
H    26.25000000   3.50000000  48.77999878
H    25.59999847   4.53999996  50.00999832
S    14.70999908   0.94999999  46.97999954
C    12.02000046   0.90999997  47.77000046
C    13.30999947   1.31999993  48.00000000
C    13.63000011   1.92000008  49.27000046
C    12.69999981   2.15000010  50.27000046
C    11.36000061   1.77999997  50.00999832
C    10.36000061   1.90999997  51.02000427
C     9.06999969   1.49000001  50.76000214
C     8.76000023   0.79000002  49.55999756
C     9.72999954   0.57999998  48.61000061
C    11.03000069   1.13999999  48.75999832
C    15.06999969   1.99000001  49.43000031
C    15.77000046   1.48000002  48.30999756
C    17.14999962   1.36000013  48.26000214
C     7.35000038   0.39999998  49.20999908
H     6.83723354   1.08368874  48.53343582
H    11.69000053   0.41000003  46.86000061
H    12.97000027   2.56999993  51.23000336
H    10.62000084   2.38999987  51.95000076
H     8.38999939   1.79000008  51.53999710
H     9.52999973   0.02000000  47.70000076
H    17.77000046   1.01999998  47.43000031
H     6.85999966   0.14999999  50.15999603
H     7.40999985  -0.54000002  48.63999939
