96

S    17.67000008   2.14000010  57.43999863
C    20.43000031   2.04999995  56.83000183
C    19.12999916   1.74000001  56.50000000
C    18.72999954   1.36999989  55.18000031
C    19.75000000   1.18000007  54.27000046
C    21.11999893   1.34000003  54.59000015
C    22.19000053   1.02999997  53.69999695
C    23.48999977   1.31999993  54.02999878
C    23.78999901   1.92000008  55.27999878
C    22.80999947   2.19000006  56.20999908
C    21.45999908   1.87999988  55.87999725
C    17.28999901   1.35000002  54.95999908
C    16.55999947   1.75999999  56.11000061
C    15.18000031   1.90999997  56.11000061
C    25.25000000   2.19000006  55.56999969
H    25.66162300   1.73579526  56.47131348
H    20.62000084   2.61000013  57.75000000
H    19.56999969   0.69999999  53.30999756
H    22.04000092   0.76999998  52.64999771
H    24.28999901   1.28999996  53.29999924
H    23.05000114   2.64999986  57.15999985
H    14.60999966   2.25999999  56.95999908
H    25.79999924   1.82999992  54.68999863
H    25.46999931   3.25999999  55.59000015
S    14.13000011   0.25000000  52.71999741
C    11.39999962   0.25000000  53.34000015
C    12.69000053   0.59999996  53.68000031
C    12.97999954   1.28000009  54.91000366
C    11.97999954   1.53999996  55.84000015
C    10.67000008   1.08000004  55.58000183
C     9.56999969   1.28000009  56.46999741
C     8.34999943   0.71000004  56.23000336
C     8.06999969   0.06000000  54.99000168
C     9.10000038  -0.09999999  54.09000015
C    10.40999985   0.39999998  54.34000015
C    14.42000008   1.43999994  55.02999878
C    15.21000004   0.90999997  53.96999741
C    16.59000015   0.83999997  53.86000061
C     6.65999985  -0.37000000  54.71000290
H     6.22633266   0.20585322  53.89242935
H    11.09000015  -0.16000001  52.37999725
H    12.20999908   1.94999993  56.81000137
H     9.80000019   1.72999990  57.43000031
H     7.57999992   0.82000005  56.98999786
H     8.97000027  -0.54000002  53.09999847
H    17.06999969   0.39000002  52.98999786
H     6.03999996  -0.16000001  55.59000015
H     6.60000038  -1.47000003  54.65999985
S    18.17000008   2.56999993  51.70999908
C    20.92000008   2.50000000  50.97999954
C    19.60000038   2.22000003  50.72000122
C    19.19000053   1.76999998  49.43000031
C    20.17000008   1.58999991  48.47000122
C    21.54999924   1.85000002  48.66000366
C    22.57999802   1.58999991  47.70999908
C    23.90000153   1.82999992  47.97999954
C    24.21999931   2.50999975  49.18000031
C    23.25000000   2.73999977  50.13000107
C    21.88999939   2.38999987  49.94999695
C    17.76000023   1.51999998  49.33000183
C    17.04000092   2.01999998  50.45000076
C    15.65000057   2.05999994  50.54999924
C    25.62999916   2.96999979  49.48999786
H    26.05542946   2.28931308  50.22740936
H    21.14999962   2.79999995  52.00000000
H    19.88000107   1.16999996  47.50999832
H    22.26000023   1.23000002  46.72999954
H    24.69000053   1.66999996  47.25000000
H    23.52999878   3.03999996  51.13999939
H    15.17000008   2.54999995  51.38000107
H    26.28000069   2.82999992  48.61999893
H    25.66999817   3.95000005  49.98000336
S    14.47000027   0.88000000  46.93999863
C    11.82999992   0.81000000  47.62000275
C    13.07000065   1.29999995  47.95000076
C    13.43999958   1.81999993  49.22999954
C    12.43000031   2.06999993  50.13999939
C    11.10000038   1.66999996  49.85000229
C     9.98999977   1.87999988  50.72000122
C     8.69000053   1.54999995  50.44000244
C     8.47000027   0.75000000  49.27999878
C     9.48000050   0.61000001  48.36000061
C    10.81999969   1.00999999  48.60000229
C    14.88000011   1.72000003  49.43000031
C    15.55999947   1.19999993  48.29999924
C    16.94000053   1.07000005  48.29000092
C     7.13000011   0.12000000  48.99000168
H     6.63019609   0.67692471  48.19745636
H    11.76000023   0.20999999  46.72000122
H    12.58999920   2.50999975  51.11999893
H    10.26000023   2.44000006  51.60999680
H     7.96999979   1.75000000  51.22000122
H     9.22999954   0.04000000  47.47000122
H    17.35000038   0.73000002  47.34000397
H     6.56000042   0.20999999  49.93000031
H     7.21000004  -0.93000001  48.68999863
