96

S    17.34000015   1.92000008  57.88999939
C    20.10999870   2.11999989  57.19999695
C    18.81999969   1.74000001  56.93000031
C    18.50000000   1.26999998  55.61999893
C    19.47999954   1.08000004  54.66999817
C    20.81000137   1.50999999  54.93000031
C    21.86000061   1.26999998  54.01000214
C    23.16999817   1.58000004  54.31000137
C    23.46999931   2.07999992  55.59999847
C    22.50000000   2.32999992  56.53999710
C    21.14000130   2.05999994  56.22000122
C    17.05999947   1.14999998  55.38000107
C    16.29999924   1.58999991  56.49000168
C    14.93000031   1.79000008  56.50000000
C    24.89000130   2.47000003  55.96000290
H    25.43549538   1.76156425  56.58342361
H    20.31999969   2.49000001  58.20000076
H    19.27999878   0.65999997  53.68999863
H    21.51000023   0.88999999  53.04999924
H    23.95000076   1.36000013  53.59000397
H    22.73999977   2.66999984  57.54000092
H    14.40999985   2.13000011  57.38999939
H    25.42000008   2.54999995  55.00999832
H    24.93999863   3.47000003  56.39999771
S    13.92000008   0.48000002  52.97000122
C    11.18000031   0.38000000  53.57999802
C    12.46000099   0.74000001  53.94000244
C    12.79999924   1.42000008  55.14999771
C    11.72999954   1.63000000  56.00999832
C    10.38000011   1.35000002  55.70000076
C     9.26999950   1.51999998  56.56999969
C     7.99000025   1.08999991  56.30000305
C     7.69999981   0.59000003  55.00999832
C     8.73999977   0.45000002  54.12000275
C    10.10000038   0.69999999  54.43999863
C    14.23999977   1.48000002  55.31999969
C    15.03999901   0.97999996  54.26000214
C    16.40999985   0.78000003  54.19000244
C     6.30000019   0.19999999  54.59000015
H     5.83701658   0.82680881  53.82786179
H    10.93000031   0.03000000  52.57999802
H    12.02000046   1.92000008  57.02000046
H     9.39000034   1.94999993  57.56000137
H     7.17999983   1.13999999  57.02000046
H     8.57999992  -0.05000000  53.16999817
H    16.97000122   0.39999998  53.34000015
H     5.61999989   0.19999999  55.45999908
H     6.24000025  -0.82999998  54.20999908
S    17.68000031   2.27999997  51.66999817
C    20.40999985   2.25999999  50.97000122
C    19.11000061   1.94999993  50.66999817
C    18.71999931   1.30999994  49.43999863
C    19.70000076   0.92000002  48.54000092
C    21.02999878   1.33000004  48.79000092
C    21.97999954   1.19999993  47.74000168
C    23.28000069   1.58000004  48.00000000
C    23.71999931   2.07999992  49.25000000
C    22.79000092   2.28999996  50.25000000
C    21.42999840   1.95999992  50.01999664
C    17.28000069   1.26999998  49.23999786
C    16.59000015   1.69000006  50.40000153
C    15.21999931   1.92000008  50.31000137
C    25.17000008   2.50999975  49.36000061
H    25.64439011   1.80903459  50.04680634
H    20.61000061   2.80999994  51.88000107
H    19.42000008   0.39999998  47.63000107
H    21.68000031   0.79000002  46.77999878
H    24.03000069   1.56000006  47.22000122
H    23.09000015   2.79999995  51.16000366
H    14.73000050   2.43000007  51.12999725
H    25.55000114   2.49000001  48.33000183
H    25.23999977   3.53999996  49.69999695
S    14.02999973   0.34000003  46.86999893
C    11.35000038   0.62000000  47.54000092
C    12.65999985   0.92000002  47.84000015
C    13.04999924   1.58000004  49.05000305
C    12.05999947   2.00000000  49.92000198
C    10.72000027   1.56000006  49.75000000
C     9.68999958   1.80000007  50.70999908
C     8.39999962   1.39999998  50.48999786
C     8.14999962   0.63000000  49.31999969
C     9.02999973   0.50000000  48.27000046
C    10.36999893   0.90999997  48.52000427
C    14.50000000   1.53999996  49.16999817
C    15.18000031   0.93000001  48.09000015
C    16.55999947   0.79999995  48.13000107
C     6.71000004   0.19999999  49.10999680
H     6.25444984   0.66266787  48.23448944
H    11.02000046   0.09999999  46.63999939
H    12.28999996   2.50000000  50.84999847
H     9.85999966   2.40999985  51.59000015
H     7.60999966   1.65999997  51.18999863
H     8.82000065  -0.02000000  47.34000397
H    17.04000092   0.41999999  47.22999954
H     6.01999998   0.50000000  49.91000366
H     6.76000023  -0.90000004  49.02000046
