96

S    17.45000076   1.88999999  57.63000107
C    20.15000153   2.09999990  56.98999786
C    18.86999893   1.80000007  56.58000183
C    18.51000023   1.36000013  55.26000214
C    19.55000114   0.99000001  54.43000031
C    20.88000107   1.35000002  54.78000259
C    21.94999886   1.08000004  53.88000107
C    23.22000122   1.48000002  54.22999954
C    23.50000000   2.17999983  55.44000244
C    22.46000099   2.53999996  56.25999832
C    21.12999916   2.11999989  55.97000122
C    17.06999969   1.33000004  55.05000305
C    16.36999893   1.63000000  56.24000168
C    14.98999977   1.66999996  56.33999634
C    24.93000031   2.61000013  55.68000031
H    25.33680153   2.22460985  56.61492538
H    20.36999893   2.39999986  58.01000214
H    19.34999847   0.55000001  53.46000290
H    21.80999947   0.64000005  52.90000153
H    24.04999924   1.33000004  53.54999924
H    22.63999939   2.87999988  57.28000259
H    14.46000004   1.86000001  57.27000427
H    25.52000046   2.30999994  54.79999924
H    25.03000069   3.70000005  55.73999786
S    13.82999992   0.50000000  52.72999573
C    11.11999989   0.48000002  53.41999817
C    12.42000008   0.75000000  53.76999664
C    12.82999992   1.19000006  55.06999969
C    11.80999947   1.28999996  55.98999786
C    10.44999981   1.04999995  55.68999863
C     9.40999985   1.02999997  56.65999985
C     8.10000038   0.75000000  56.37000275
C     7.72000027   0.44000000  55.04000092
C     8.69999981   0.35999998  54.06999969
C    10.06999969   0.64000005  54.36000061
C    14.27999973   1.36000013  55.17000198
C    14.96000099   1.04999995  53.96999741
C    16.35000038   1.00999999  53.88999939
C     6.26999950   0.14999999  54.75000000
H     5.81624603   0.70301265  53.92757416
H    10.86999989   0.09000000  52.43999863
H    12.18000031   1.38000000  57.01000214
H     9.73999977   1.26999998  57.67000198
H     7.37999964   0.71000004  57.18999863
H     8.52999973   0.12000000  53.02999878
H    16.95000076   0.69000000  53.04000092
H     5.64000034   0.29999998  55.63000107
H     6.17999983  -0.92000002  54.52999878
S    17.98999977   2.63000011  51.52000046
C    20.66999817   2.70000005  50.90000153
C    19.40000153   2.42000008  50.45999908
C    19.11000061   1.97000003  49.13000107
C    20.22000122   1.65999997  48.36000061
C    21.54999924   1.94000006  48.75000000
C    22.65999985   1.65000010  47.90999985
C    23.94000053   1.92000008  48.33000183
C    24.20000076   2.70000005  49.48999786
C    23.12999916   2.92000008  50.33000183
C    21.80000114   2.48000002  50.06000137
C    17.65999985   1.87000012  49.00000000
C    16.92000008   2.21000004  50.15999603
C    15.53999996   2.29999995  50.27000046
C    25.58000183   3.22000003  49.79999924
H    26.04856873   2.53844714  50.50994873
H    20.76999855   3.26999998  51.81000137
H    20.15000153   1.04999995  47.47000122
H    22.56000137   1.21000004  46.93000031
H    24.79999924   1.58000004  47.76000214
H    23.32999992   3.33999991  51.31000137
H    15.01000023   2.75000000  51.11000061
H    26.14999962   3.32999992  48.87000275
H    25.52999878   4.19000006  50.31000137
S    14.44000053   0.97999996  46.70999908
C    11.71000004   0.87000000  47.43999863
C    13.00000000   1.26999998  47.70999908
C    13.38000107   1.74000001  49.00000000
C    12.39999962   1.89999998  49.97000122
C    11.03999996   1.72000003  49.62999725
C     9.98000050   1.94000006  50.56000137
C     8.67000008   1.63000000  50.31000137
C     8.30000019   1.04999995  49.06999969
C     9.30999947   0.75000000  48.18999863
C    10.67999935   1.08000004  48.39000320
C    14.82999992   1.80000007  49.16999817
C    15.54999924   1.39999998  48.02000046
C    16.93000031   1.39999998  47.90000153
C     6.86999989   0.74000001  48.70999908
H     6.54944515   1.21727061  47.78395462
H    11.43000031   0.59999996  46.42000198
H    12.81000042   2.22000003  50.91999817
H    10.22999954   2.22000003  51.58000183
H     8.01000023   1.75000000  51.17000198
H     9.21000004   0.13000000  47.29000092
H    17.40999985   0.97000003  47.02999878
H     6.28000021   1.05999994  49.58000183
H     6.65999985  -0.34000003  48.73000336
