96

S    17.32999992   2.27999997  57.76000214
C    20.06000137   2.25999999  57.22999954
C    18.78999901   1.94000006  56.81000137
C    18.46999931   1.28000009  55.58000183
C    19.55999947   1.02999997  54.75999832
C    20.88999939   1.36000013  55.10000229
C    21.90999985   1.23000002  54.13000107
C    23.15999985   1.75999999  54.33000183
C    23.46999931   2.34999990  55.59000015
C    22.47999954   2.51999998  56.52999878
C    21.14999962   2.05999994  56.33999634
C    17.05000114   1.16999996  55.30000305
C    16.34000015   1.64000010  56.43000031
C    14.94999981   1.72999990  56.45000076
C    24.79000092   3.07000017  55.72000122
H    25.42273140   2.49414444  56.39538574
H    20.29999924   2.72000027  58.18000031
H    19.31999969   0.59000003  53.79000092
H    21.50000000   0.83999997  53.20000076
H    23.85000038   1.58000004  53.50999832
H    22.72000122   3.05000019  57.44999695
H    14.39000034   2.06999993  57.31999969
H    25.22000122   3.07000017  54.71000290
H    24.77000046   4.11999989  56.00999832
S    13.86999989   0.45000002  52.85999680
C    11.10000038   0.50000000  53.52000427
C    12.42000008   0.75000000  53.83999634
C    12.79000092   1.26999998  55.12000275
C    11.80999947   1.65999997  56.00999832
C    10.43000031   1.51999998  55.75000000
C     9.36999989   1.76999998  56.65999985
C     8.05999947   1.43000007  56.39999771
C     7.78999996   0.81000000  55.14999771
C     8.78000069   0.56999999  54.22000122
C    10.14999962   0.83999997  54.51000214
C    14.22999954   1.26999998  55.34999847
C    14.96000099   0.90000004  54.19000244
C    16.35000038   0.81000000  54.13999939
C     6.37000036   0.35999998  54.92000198
H     5.84213400   1.01626611  54.22806931
H    10.72000027   0.09999999  52.57999802
H    12.10000038   2.02999997  56.98999786
H     9.61999989   2.15000010  57.64999771
H     7.30000019   1.70000005  57.11999893
H     8.60000038  -0.04000000  53.34000015
H    16.80999947   0.56000000  53.18999863
H     5.82000017   0.34999999  55.87999725
H     6.40999985  -0.68000007  54.56999969
S    18.04000092   2.51999998  51.86999893
C    20.76000023   2.50000000  51.19999695
C    19.45999908   2.20000005  50.86000061
C    19.10000038   1.81999993  49.52000046
C    20.07999802   1.71000004  48.55999756
C    21.44000053   1.95999992  48.89999771
C    22.46999931   1.92000008  47.91999817
C    23.80000114   2.16999984  48.20999908
C    24.13999939   2.66999984  49.48999786
C    23.15000153   2.69000006  50.44000244
C    21.77999878   2.37000012  50.22999573
C    17.64999962   1.81999993  49.34000015
C    16.95000076   2.23000002  50.50000000
C    15.57000065   2.38999987  50.58000183
C    25.52999878   3.19000006  49.78000259
H    26.00011444   2.69139194  50.62763596
H    21.00000000   3.01999998  52.11999893
H    19.95000076   1.28999996  47.56999969
H    22.21999931   1.61000001  46.90999985
H    24.57999992   1.92000008  47.49000168
H    23.29999924   3.00999999  51.46999741
H    15.08999920   2.70000005  51.50000000
H    26.14000130   3.09999990  48.87000275
H    25.36000061   4.26999998  49.86000061
S    14.42000008   1.03999996  47.00000000
C    11.69999981   1.05999994  47.70999908
C    13.01000023   1.31999993  48.04000092
C    13.38999939   1.77999997  49.34000015
C    12.41000080   2.09000015  50.27000046
C    11.05000019   1.81999993  49.99000168
C    10.01000023   2.00000000  50.93999863
C     8.71000004   1.63000000  50.72999954
C     8.38999939   1.03999996  49.47000122
C     9.34000015   0.93999994  48.47999954
C    10.70000076   1.28999996  48.68999863
C    14.82999992   1.95999992  49.47999954
C    15.51000023   1.43000007  48.34999847
C    16.88999939   1.48000002  48.20999908
C     7.02000046   0.46999997  49.20000076
H     6.47205782   1.02505827  48.43857574
H    11.36999989   0.44000000  46.88000107
H    12.64999962   2.38999987  51.29000092
H    10.32999992   2.51999998  51.84000015
H     7.90000010   1.86000001  51.40999603
H     9.13999939   0.48999998  47.50999832
H    17.36999893   0.97999996  47.37999725
H     6.50000000   0.51999998  50.17000198
H     7.09999990  -0.57999998  48.90999603
