96

S    17.72999954   1.80000007  57.47000122
C    20.45000076   1.93000007  56.76000214
C    19.17000008   1.51999998  56.46999741
C    18.75000000   0.93999994  55.22999573
C    19.72999954   0.81000000  54.26000214
C    21.07000160   1.19999993  54.52000046
C    22.10000038   1.05999994  53.54999924
C    23.42000008   1.25000000  53.89999771
C    23.81000137   1.84000003  55.12000275
C    22.81999969   2.09999990  56.04000092
C    21.45999908   1.75000000  55.77999878
C    17.29999924   0.79999995  55.11000061
C    16.56999969   1.29999995  56.22000122
C    15.19999981   1.52999997  56.18000031
C    25.20999908   2.29999995  55.48999786
H    25.62344170   1.60855639  56.22421265
H    20.55999947   2.43000007  57.71999741
H    19.44000053   0.38000000  53.30999756
H    21.86000061   0.67000002  52.56000137
H    24.10000038   0.93000001  53.11000061
H    23.02000046   2.57999992  56.98999786
H    14.68000031   1.89999998  57.05999756
H    25.76999855   2.36000013  54.54000092
H    25.20000076   3.28000021  55.97999954
S    14.07999992   0.09999999  52.68000031
C    11.31999969   0.25999999  53.36000061
C    12.64000034   0.50000000  53.63999939
C    13.01000023   0.96000004  54.94999695
C    12.05999947   1.08000004  55.93999863
C    10.70000076   0.82000005  55.65999985
C     9.71000004   0.96000004  56.66999817
C     8.38999939   0.61000001  56.45999908
C     8.05000019   0.13000000  55.17000198
C     8.93000031   0.11000000  54.12000275
C    10.29999924   0.45000002  54.31999969
C    14.45000076   1.14999998  55.06000137
C    15.18000031   0.61000001  53.96999741
C    16.55999947   0.41999999  53.99000168
C     6.58999968  -0.11000000  54.82999802
H     6.26942539   0.49553019  53.98225784
H    11.18000031  -0.07000000  52.32999802
H    12.30000019   1.38000000  56.95999908
H    10.06000042   1.34000003  57.63000107
H     7.59000015   0.78000003  57.16999817
H     8.71000004  -0.19999999  53.09999847
H    17.07999992   0.16000001  53.06999969
H     5.95000029   0.08000001  55.68999863
H     6.46000004  -1.16999996  54.56999969
S    17.71000099   2.14000010  51.40999603
C    20.40999985   2.19000006  50.84000015
C    19.13999939   1.94999993  50.37000275
C    18.79999924   1.49000001  49.06000137
C    19.86999893   1.23000002  48.22000122
C    21.21000099   1.49000001  48.60000229
C    22.32999992   1.44999993  47.71999741
C    23.61999893   1.54999995  48.20000076
C    23.85000038   2.16000009  49.45999908
C    22.81999969   2.19000006  50.35999680
C    21.47999954   1.98000002  49.93000031
C    17.36999893   1.36999989  48.82999802
C    16.69000053   1.82999992  49.99000168
C    15.32999992   2.04999995  50.08999634
C    25.22000122   2.71000004  49.77000427
H    25.78375244   1.98925400  50.36229706
H    20.59999847   2.70000005  51.77999878
H    19.63999939   0.92000002  47.21000290
H    22.27000046   1.07000005  46.70999908
H    24.44000053   1.28999996  47.52999878
H    23.02000046   2.61000013  51.33999634
H    14.81999969   2.21000004  51.04000092
H    25.71000099   2.94999981  48.81000137
H    25.03000069   3.63999987  50.31999969
S    14.04999924   0.63000000  46.59999847
C    11.39000034   0.71000004  47.37999725
C    12.69999981   1.00000000  47.69000244
C    13.07999992   1.52999997  48.96999741
C    12.18000031   1.65000010  50.00999832
C    10.80999947   1.42000008  49.72999954
C     9.72999954   1.64000010  50.63000107
C     8.42000008   1.29999995  50.38000107
C     8.10000038   0.67000002  49.13999939
C     9.11999989   0.50999999  48.22999954
C    10.44999981   0.97000003  48.41999817
C    14.52999973   1.65999997  49.01000214
C    15.19000053   1.19000006  47.84999847
C    16.56999969   1.11000001  47.70999908
C     6.67000008   0.28999999  48.86000061
H     6.27766705   0.86066628  48.01826859
H    11.05999947   0.12000000  46.52999878
H    12.51000023   2.03999996  50.97000122
H    10.01000023   1.85000002  51.65999985
H     7.67000008   1.08999991  51.13999939
H     8.92000008  -0.04000000  47.31999969
H    17.02000046   0.71999997  46.79999924
H     6.01999998   0.25999999  49.73999786
H     6.78999996  -0.76999998  48.59000397
