96

S    17.28000069   1.98000002  57.85999680
C    20.03000069   2.05999994  57.27000427
C    18.76000023   1.66999996  56.91999817
C    18.37000084   1.28999996  55.59000015
C    19.42000008   1.04999995  54.72000122
C    20.76000023   1.34000003  55.04000092
C    21.83000183   1.08000004  54.13000107
C    23.09999847   1.54999995  54.38000107
C    23.42000008   2.15000010  55.63000107
C    22.39000130   2.40999985  56.51000214
C    21.05999947   1.94000006  56.31000137
C    16.93000031   1.34000003  55.35999680
C    16.18000031   1.79000008  56.47999573
C    14.80000019   1.95999992  56.45999908
C    24.82999992   2.56000018  55.96000290
H    25.29992676   2.00463271  56.77169037
H    20.09000015   2.43000007  58.29000092
H    19.18000031   0.54000002  53.79000092
H    21.61999893   0.71000004  53.13000107
H    23.95000076   1.43999994  53.70999908
H    22.62000084   2.99000001  57.39999771
H    14.34000015   2.25000000  57.39999771
H    25.43000031   2.44000006  55.05000305
H    24.86000061   3.63999987  56.17000198
S    13.82999992   0.48999998  52.85999680
C    11.10000038   0.39999998  53.52000427
C    12.36999989   0.86000001  53.80000305
C    12.75000000   1.43000007  55.06000137
C    11.72000027   1.71000004  55.93999863
C    10.39999962   1.25999999  55.68000031
C     9.35000038   1.38999999  56.63000107
C     8.05999947   0.97999996  56.43000031
C     7.76999998   0.44000000  55.14999771
C     8.67999935   0.39999998  54.12000275
C    10.05000019   0.59999996  54.45000076
C    14.19000053   1.52999997  55.27000046
C    14.91000080   0.96000004  54.19000244
C    16.29999924   0.92000002  54.19000244
C     6.37000036  -0.03000000  54.86999893
H     5.98011351   0.44495323  53.96971512
H    10.98999977   0.00000000  52.50999832
H    11.90000057   2.17999983  56.90000153
H     9.56999969   1.80000007  57.62000275
H     7.30000019   1.12000000  57.18999863
H     8.45000076   0.14000000  53.09000015
H    16.86000061   0.55000001  53.34000015
H     5.78999996   0.07000000  55.79000092
H     6.50000000  -1.08999991  54.61000061
S    14.13000011  -1.50999999  50.06999969
C    11.46000004  -1.99000001  50.58000183
C    12.76000023  -2.19000006  50.97000122
C    13.19000053  -2.80999994  52.18999863
C    12.13999939  -3.15000010  53.02999878
C    10.77999973  -2.98000002  52.70000076
C     9.70000076  -3.31999993  53.56999969
C     8.42000008  -3.05000019  53.15999985
C     8.03999996  -2.51999998  51.90000153
C     9.06000042  -2.16000009  51.04000092
C    10.40999985  -2.38999987  51.44000244
C    14.60999966  -2.59000015  52.43999863
C    15.26000023  -1.92000008  51.38000107
C    16.55999947  -1.44999993  51.51000214
C     6.58999968  -2.50999975  51.46999741
H     6.31978226  -3.46287251  51.01489639
H    11.18000031  -1.59999990  49.59999847
H    12.46000099  -3.48000002  54.01000214
H     9.92000008  -3.81999993  54.51000214
H     7.67000008  -3.45999980  53.83999634
H     8.84000015  -1.75999999  50.05000305
H    17.09000015  -0.96000004  50.70000076
H     6.01999998  -2.36000013  52.38999939
H     6.43000031  -1.62000000  50.84000015
S    17.90999985  -3.38999987  54.72000122
C    20.56999969  -2.66000009  54.20999908
C    19.23999977  -2.63999987  53.82999802
C    18.78000069  -1.98000002  52.64999771
C    19.71999931  -1.57000005  51.72999954
C    21.09999847  -1.65000010  52.04999924
C    22.11999893  -1.05999994  51.25000000
C    23.45999908  -1.18000007  51.58000183
C    23.90999985  -1.80999994  52.76000214
C    22.93000031  -2.26999998  53.61999893
C    21.54999924  -2.16999984  53.30999756
C    17.31999969  -1.97000003  52.56999969
C    16.70999908  -2.75999999  53.57999802
C    15.36000061  -3.09999990  53.50000000
C    25.38000107  -2.03999996  53.02999878
H    25.76499367  -1.51954615  53.90692902
H    20.89999962  -3.12999988  55.13000107
H    19.45000076  -1.08999991  50.79000092
H    21.80999947  -0.44000000  50.40999985
H    24.15999985  -0.75999999  50.86999893
H    23.23999786  -2.71000004  54.55999756
H    14.86999989  -3.75999975  54.20999908
H    25.89999962  -1.75000000  52.11000061
H    25.42000008  -3.12000012  53.25000000
