96

S    17.78000069   1.58999991  57.81000137
C    20.48000145   1.72999990  57.11999893
C    19.19999886   1.33000004  56.79000092
C    18.81000137   0.86000001  55.50000000
C    19.78000069   0.79999995  54.51000214
C    21.09999847   1.25000000  54.72000122
C    22.18000031   1.03999996  53.81000137
C    23.46999931   1.36000013  54.16999817
C    23.75000000   2.00999999  55.40999985
C    22.72999954   2.16999984  56.31999969
C    21.40999985   1.71000004  56.04999924
C    17.36999893   0.69999999  55.37000275
C    16.65999985   1.08999991  56.52999878
C    15.26999950   1.12000000  56.59000015
C    25.15000153   2.28999996  55.89000320
H    25.47132301   1.64021075  56.70402145
H    20.76000023   2.33999991  57.97000122
H    19.47999954   0.28999999  53.60000229
H    21.98999786   0.61000001  52.83000183
H    24.31999969   1.12000000  53.54000092
H    22.96999931   2.54999995  57.30999756
H    14.82999992   1.38000000  57.55000305
H    25.89999962   2.23000002  55.08999634
H    25.13000107   3.35999990  56.16000366
S    14.09000015  -0.09000000  53.04000092
C    11.36000061   0.04000000  53.61000061
C    12.65999985   0.20999999  54.03999710
C    13.07999992   0.71999997  55.31000137
C    12.07999992   1.08000004  56.19999695
C    10.72999954   0.83999997  55.86000061
C     9.72999954   0.92000002  56.88000107
C     8.42000008   0.56000000  56.63999939
C     8.05999947  -0.06000000  55.40999985
C     9.00000000  -0.09000000  54.40000153
C    10.36999893   0.25999999  54.59000015
C    14.52000046   0.78000003  55.45999908
C    15.24000072   0.32000002  54.33000183
C    16.62999916   0.25999999  54.27000046
C     6.67000008  -0.50000000  55.02999878
H     6.20137262   0.20294160  54.34125900
H    11.06999969  -0.17999999  52.57999802
H    12.38999939   1.47000003  57.16999817
H    10.00000000   1.33000004  57.84000015
H     7.65999985   0.69999999  57.39999771
H     8.78000069  -0.50000000  53.41999817
H    17.09000015  -0.04000000  53.33000183
H     6.03999996  -0.65999997  55.90999985
H     6.67000008  -1.50999999  54.59999847
S    14.11000061  -2.00999999  50.07999802
C    11.44000053  -2.43000007  50.76000214
C    12.76999950  -2.63000011  51.05999756
C    13.26000023  -3.25999999  52.25000000
C    12.30999947  -3.73000002  53.13999939
C    10.92000008  -3.54999995  52.95000076
C     9.94999981  -4.11000013  53.81999969
C     8.60000038  -3.88999987  53.63999939
C     8.19000053  -3.30000019  52.42000198
C     9.11000061  -2.79999995  51.52999878
C    10.52000046  -2.84999990  51.75000000
C    14.70999908  -3.22000003  52.34000397
C    15.31000042  -2.46000004  51.31000137
C    16.64999962  -2.09000015  51.25000000
C     6.71000004  -3.17000008  52.14000320
H     6.33827877  -3.42019701  51.14636230
H    11.19999981  -1.99000001  49.79000092
H    12.60000038  -4.35999966  53.96999741
H    10.31000042  -4.72000027  54.65000153
H     7.86000013  -4.28000021  54.33000183
H     8.82999992  -2.27999997  50.61999893
H    17.00000000  -1.48000002  50.43000031
H     6.25999975  -3.88999987  52.84000015
H     6.48000002  -2.14000010  52.43999863
S    18.01000023  -3.75000000  54.61999893
C    20.71000099  -3.07000017  53.99000168
C    19.36000061  -2.96000004  53.75999832
C    18.84000015  -2.27999997  52.62000275
C    19.72999954  -1.56000006  51.84000015
C    21.12999916  -1.61000001  52.02999878
C    22.06999969  -1.16999996  51.05999756
C    23.42000008  -1.28000009  51.32999802
C    23.95000076  -1.85000002  52.51999664
C    23.02000046  -2.40999985  53.36999893
C    21.61000061  -2.33999991  53.18000031
C    17.43000031  -2.52999997  52.32999802
C    16.86000061  -3.35000014  53.33000183
C    15.51000023  -3.68999982  53.37999725
C    25.40999985  -2.16000009  52.76000214
H    25.74426079  -1.86841226  53.75566483
H    21.09000015  -3.61000013  54.86000061
H    19.34999847  -0.93000001  51.04999924
H    21.80999947  -0.61000001  50.17000198
H    24.07999992  -0.99000001  50.52000046
H    23.45999908  -2.96000004  54.20000076
H    15.13000011  -4.36999989  54.13999939
H    26.00000000  -1.62000000  52.01000214
H    25.59000015  -3.24000001  52.64999771
