96

S    17.28999901   1.87999988  57.61000061
C    19.98999977   1.97000003  56.90000153
C    18.70000076   1.62000000  56.56000137
C    18.30000114   1.13999999  55.27000046
C    19.29000092   0.90999997  54.34000015
C    20.62000084   1.28000009  54.65000153
C    21.63000107   1.25999999  53.63999939
C    22.93000031   1.66999996  53.81999969
C    23.29999924   2.13000011  55.11000061
C    22.36999893   2.20000005  56.11999893
C    21.01000023   1.80000007  55.93999863
C    16.86000061   1.10000002  55.13000107
C    16.15999985   1.47000003  56.30000305
C    14.78000069   1.63000000  56.30000305
C    24.67000008   2.71000004  55.40000153
H    25.23794937   2.01426148  56.01764297
H    20.22999954   2.47000003  57.84000015
H    19.05999947   0.74000001  53.29000092
H    21.31000137   0.81000000  52.70000076
H    23.54000092   1.94000006  52.95999908
H    22.60999870   2.59999990  57.09000015
H    14.23999977   1.87000012  57.21000290
H    25.20000076   2.82999992  54.45000076
H    24.48999786   3.67000008  55.90000153
S    13.61999989   0.12000000  52.80000305
C    10.95000076   0.19999999  53.40999985
C    12.22000027   0.57999998  53.79000092
C    12.56999969   1.18000007  55.04000092
C    11.54000092   1.24000001  55.96000290
C    10.21000004   0.97000003  55.56000137
C     9.21000004   0.90000004  56.56000137
C     7.90999985   0.55000001  56.29000092
C     7.59999990   0.11000000  54.98000336
C     8.55000019  -0.05000000  53.99000168
C     9.85000038   0.44000000  54.27000046
C    14.01999950   1.29999995  55.17000198
C    14.70000076   0.75000000  54.06000137
C    16.09000015   0.63000000  54.06000137
C     6.19999981  -0.28999999  54.56999969
H     5.65989876   0.45619300  53.98725891
H    10.88000107  -0.41999999  52.51999664
H    11.77000046   1.39999998  57.01000214
H     9.52999973   1.11000001  57.57999802
H     7.16000032   0.65999997  57.06999969
H     8.38999939  -0.48999998  53.01000214
H    16.59000015   0.08000001  53.26000214
H     5.59999990  -0.68000007  55.40000153
H     6.34000015  -1.12000000  53.87000275
S    14.04000092  -1.97000003  49.88999939
C    11.43000031  -2.52999997  50.56999969
C    12.76000023  -2.64999986  50.90999985
C    13.21000004  -3.08999991  52.18999863
C    12.20999908  -3.42999983  53.09000015
C    10.82999992  -3.25999999  52.80000305
C     9.78999996  -3.76999998  53.61999893
C     8.51000023  -3.86000013  53.13000107
C     8.11999989  -3.58000016  51.79000092
C     9.09000015  -3.07999992  50.94999695
C    10.40999985  -2.91000009  51.46999741
C    14.63999939  -2.89999986  52.36000061
C    15.19000053  -2.31999993  51.18999863
C    16.53000069  -1.94999993  51.14999771
C     6.80000019  -4.05999994  51.23000336
H     6.04997158  -3.30282855  51.45858383
H    11.16000080  -2.16999984  49.58000183
H    12.48999977  -3.81999993  54.06999969
H    10.08999920  -4.11999989  54.61000061
H     7.77999973  -4.34999990  53.75999832
H     8.89999962  -2.89999986  49.89999771
H    17.02999878  -1.54999995  50.27000046
H     6.94999981  -4.19999981  50.15999603
H     6.47000027  -5.05999994  51.56000137
S    18.00000000  -3.22000003  54.61999893
C    20.65999985  -2.56000018  53.90999603
C    19.32999992  -2.64999986  53.59000397
C    18.81000137  -2.16999984  52.35000229
C    19.70000076  -1.67999995  51.40999603
C    21.09000015  -1.63000000  51.70000076
C    21.97999954  -1.05999994  50.73999786
C    23.31999969  -0.90999997  51.00999832
C    23.81999969  -1.33000004  52.27000427
C    22.96999931  -1.77999997  53.25000000
C    21.57999992  -1.94999993  53.01000214
C    17.35000038  -2.21000004  52.25999832
C    16.77999878  -2.80999994  53.40000153
C    15.44999981  -3.21000004  53.46000290
C    25.26000023  -0.99000001  52.55000305
H    25.73054886  -1.61026907  53.31285858
H    21.02999878  -2.92000008  54.86999893
H    19.29999924  -1.25000000  50.50000000
H    21.54000092  -0.75000000  49.79999924
H    23.95000076  -0.48999998  50.22999573
H    23.38000107  -2.13000011  54.19000244
H    14.91000080  -3.71000004  54.26000214
H    25.30999947   0.09000000  52.77000046
H    25.89999962  -1.05999994  51.65999985
