96

S    17.50000000   1.99000001  57.51999664
C    20.06999969   2.52999997  56.65999985
C    18.84000015   1.95999992  56.37000275
C    18.53000069   1.29999995  55.13999939
C    19.51000023   1.16999996  54.16999817
C    20.81999969   1.65000010  54.40000153
C    21.91999817   1.50999999  53.50000000
C    23.21000099   1.93000007  53.73000336
C    23.46999931   2.45000005  55.02999878
C    22.42000198   2.64999986  55.89000320
C    21.04999924   2.30999994  55.65999985
C    17.09000015   1.08999991  55.04000092
C    16.40999985   1.41000009  56.24000168
C    15.03999901   1.57000005  56.33999634
C    24.84000015   3.00000000  55.35999680
H    25.26730347   2.40177417  56.16475677
H    20.27000046   3.07000017  57.56999969
H    19.37000084   0.54000002  53.29999924
H    21.80999947   0.97999996  52.56000137
H    24.02000046   1.70000005  53.04999924
H    22.75000000   3.07000017  56.83000183
H    14.47999954   2.01999998  57.15000153
H    25.45999908   3.10999990  54.45999908
H    24.71999931   4.05000019  55.65000153
S    13.78000069   0.39999998  52.75000000
C    11.07999992   0.37000000  53.60000229
C    12.38999939   0.73000002  53.79000092
C    12.79999924   1.21000004  55.07999802
C    11.84000015   1.43999994  56.04999924
C    10.47999954   1.21000004  55.76000214
C     9.46000004   1.35000002  56.73999786
C     8.13000011   1.10000002  56.50000000
C     7.75000000   0.52999997  55.25000000
C     8.67000008   0.32000002  54.25000000
C    10.03999901   0.59999996  54.52999878
C    14.25000000   1.21000004  55.22999573
C    14.92000008   0.76999998  54.06000137
C    16.29999924   0.64000005  53.96999741
C     6.30999994   0.22000000  54.94999695
H     5.89133310   0.69543523  54.06299210
H    10.93000031  -0.29999998  52.75000000
H    12.15999985   1.66999996  57.05999756
H     9.78999996   1.75999999  57.70000076
H     7.40000010   1.57000005  57.14000320
H     8.34000015  -0.28999999  53.40000153
H    16.73999977   0.39000002  53.01000214
H     5.75000000   0.39999998  55.86999893
H     6.23000050  -0.86000001  54.79000092
S    14.11999893  -1.63000000  49.68999863
C    11.47999954  -2.10999990  50.52000046
C    12.82999992  -2.31999993  50.70000076
C    13.28999996  -2.96000004  51.88999939
C    12.36999989  -3.58000016  52.71999741
C    10.98000050  -3.35000014  52.56999969
C    10.01000023  -3.75000000  53.53000259
C     8.69999981  -3.35000014  53.36999893
C     8.17000008  -2.76999998  52.18000031
C     9.11999989  -2.36000013  51.26999664
C    10.51000023  -2.59000015  51.44000244
C    14.70000076  -2.70000005  52.11999893
C    15.25000000  -2.01999998  51.00000000
C    16.57999992  -1.61000001  51.00000000
C     6.69000053  -2.80999994  51.86999893
H     6.44812870  -3.52138686  51.08036041
H    11.14999962  -1.52999997  49.65999985
H    12.75000000  -4.21000004  53.52000427
H    10.29999924  -4.17000008  54.47999954
H     8.01000023  -3.49000001  54.20000076
H     8.96000004  -1.94000006  50.27999878
H    16.95000076  -1.23000002  50.05000305
H     6.15999985  -3.17000008  52.76000214
H     6.32999992  -1.84000003  51.52000046
S    18.00000000  -3.03999996  54.45000076
C    20.62999916  -2.42000008  53.79000092
C    19.29000092  -2.27999997  53.50000000
C    18.79999924  -1.74000001  52.27000427
C    19.71999931  -1.18000007  51.39999771
C    21.09999847  -1.30999994  51.66999817
C    22.06999969  -0.92000002  50.70999908
C    23.42000008  -1.11000001  50.93000031
C    23.90999985  -1.59999990  52.16999817
C    23.00000000  -2.07999992  53.08000183
C    21.60000038  -1.95999992  52.85999680
C    17.35999870  -1.89999998  52.12999725
C    16.80999947  -2.66999984  53.18000031
C    15.48999977  -3.09999990  53.20999908
C    25.39999962  -1.77999997  52.35000229
H    25.74210739  -1.48065650  53.34068680
H    21.04000092  -3.03999996  54.58000183
H    19.54000092  -0.83999997  50.38000107
H    21.70000076  -0.41999999  49.81999969
H    24.09000015  -0.73000002  50.17000198
H    23.29999924  -2.57999992  53.99000168
H    14.91000080  -3.63999987  53.95999908
H    25.92000008  -1.13999999  51.62000275
H    25.53999901  -2.84999990  52.16999817
