96

S    17.34000015   1.92000008  57.88999939
C    20.10999870   2.11999989  57.19999695
C    18.81999969   1.74000001  56.93000031
C    18.50000000   1.26999998  55.61999893
C    19.47999954   1.08000004  54.66999817
C    20.81000137   1.50999999  54.93000031
C    21.86000061   1.26999998  54.01000214
C    23.16999817   1.58000004  54.31000137
C    23.46999931   2.07999992  55.59999847
C    22.50000000   2.32999992  56.53999710
C    21.14000130   2.05999994  56.22000122
C    17.05999947   1.14999998  55.38000107
C    16.29999924   1.58999991  56.49000168
C    14.93000031   1.79000008  56.50000000
C    24.89000130   2.47000003  55.96000290
H    25.43549538   1.76156425  56.58342361
H    20.31999969   2.49000001  58.20000076
H    19.27999878   0.65999997  53.68999863
H    21.51000023   0.88999999  53.04999924
H    23.95000076   1.36000013  53.59000397
H    22.73999977   2.66999984  57.54000092
H    14.40999985   2.13000011  57.38999939
H    25.42000008   2.54999995  55.00999832
H    24.93999863   3.47000003  56.39999771
S    13.92000008   0.48000002  52.97000122
C    11.18000031   0.38000000  53.57999802
C    12.46000099   0.74000001  53.94000244
C    12.79999924   1.42000008  55.14999771
C    11.72999954   1.63000000  56.00999832
C    10.38000011   1.35000002  55.70000076
C     9.26999950   1.51999998  56.56999969
C     7.99000025   1.08999991  56.30000305
C     7.69999981   0.59000003  55.00999832
C     8.73999977   0.45000002  54.12000275
C    10.10000038   0.69999999  54.43999863
C    14.23999977   1.48000002  55.31999969
C    15.03999901   0.97999996  54.26000214
C    16.40999985   0.78000003  54.19000244
C     6.30000019   0.19999999  54.59000015
H     5.83701658   0.82680881  53.82786179
H    10.93000031   0.03000000  52.57999802
H    12.02000046   1.92000008  57.02000046
H     9.39000034   1.94999993  57.56000137
H     7.17999983   1.13999999  57.02000046
H     8.57999992  -0.05000000  53.16999817
H    16.97000122   0.39999998  53.34000015
H     5.61999989   0.19999999  55.45999908
H     6.24000025  -0.82999998  54.20999908
S    14.40999985  -1.65999997  50.00000000
C    11.75000000  -2.04999995  50.72000122
C    13.07999992  -2.28999996  50.98999786
C    13.48000050  -2.80999994  52.25999832
C    12.58999920  -3.33999991  53.16999817
C    11.21000099  -3.23000002  52.84999847
C    10.17000008  -3.68999982  53.69999695
C     8.84000015  -3.54999995  53.37999725
C     8.38999939  -2.96000004  52.15999985
C     9.39999962  -2.51999998  51.33999634
C    10.78999996  -2.59000015  51.63000107
C    14.93000031  -2.79000020  52.32999802
C    15.55999947  -2.03999996  51.30000305
C    16.88999939  -1.63000000  51.31000137
C     6.90999985  -2.80999994  51.93000031
H     6.53979540  -3.26563621  51.01160812
H    11.47999954  -1.59999990  49.78000259
H    12.82999992  -3.91000009  54.06999969
H    10.39999962  -4.26999998  54.59000015
H     8.14999962  -4.17000008  53.95000076
H     9.10000038  -2.05999994  50.40000153
H    17.20999908  -1.41000009  50.30000305
H     6.35999966  -3.17999983  52.81000137
H     6.65999985  -1.74000001  52.04000092
S    18.20999908  -3.26999998  54.71000290
C    20.88000107  -2.84000015  53.95000076
C    19.54000092  -2.73999977  53.66000366
C    19.15999985  -1.99000001  52.50000000
C    20.06999969  -1.41000009  51.63999939
C    21.45999908  -1.56000006  51.86999893
C    22.49000168  -1.14999998  50.97999954
C    23.80000114  -1.42000008  51.29000092
C    24.17000008  -1.98000002  52.54000092
C    23.19999886  -2.45000005  53.40000153
C    21.83000183  -2.25999999  53.08000183
C    17.71000099  -2.03999996  52.37999725
C    17.10000038  -2.76999998  53.43000031
C    15.77999973  -3.21000004  53.36000061
C    25.62000084  -2.25000000  52.90000153
H    25.85475731  -2.09349513  53.95285416
H    21.24000168  -3.37000012  54.81999969
H    19.70000076  -0.82000005  50.80999756
H    22.19000053  -0.83999997  49.98000336
H    24.53000069  -1.03999996  50.58000183
H    23.39999962  -3.10999990  54.23999786
H    15.39999962  -3.71000004  54.23999786
H    26.28999901  -1.58999991  52.32999802
H    25.89999962  -3.25000000  52.55000305
